<?xml version="1.0" encoding="UTF-8"?>

<!-- generated on 2025-06-12 18:11:12 by Eclipse SUMO netconvert Version 1.22.0
<netconvertConfiguration xmlns:xsi="http://www.w3.org/2001/XMLSchema-instance" xsi:noNamespaceSchemaLocation="http://sumo.dlr.de/xsd/netconvertConfiguration.xsd">

    <input>
        <sumo-net-file value="caugiay_v1.net.xml,.\sumo\vung03.net.xml"/>
    </input>

    <output>
        <output-file value="caugiay_lang_v1.net.xml"/>
    </output>

    <processing>
        <geometry.min-radius.fix.railways value="false"/>
        <geometry.avoid-overlap value="0"/>
        <geometry.max-grade.fix value="false"/>
        <offset.disable-normalization value="true"/>
        <lefthand value="0"/>
        <edges.join value="true"/>
    </processing>

    <junctions>
        <no-turnarounds value="true"/>
        <junctions.join-same value="true"/>
        <junctions.corner-detail value="5"/>
        <junctions.limit-turn-speed value="5.50"/>
        <rectangular-lane-cut value="0"/>
    </junctions>

    <pedestrian>
        <walkingareas value="0"/>
    </pedestrian>

</netconvertConfiguration>
-->

<net version="1.20" junctionCornerDetail="5" limitTurnSpeed="5.50" avoidOverlap="0" xmlns:xsi="http://www.w3.org/2001/XMLSchema-instance" xsi:noNamespaceSchemaLocation="http://sumo.dlr.de/xsd/net_file.xsd">

    <location netOffset="-581155.35,-2324860.75" convBoundary="-566.24,-1550.84,3463.29,1827.31" origBoundary="105.781051,20.960406,105.813160,21.045988" projParameter="+proj=utm +zone=48 +ellps=WGS84 +datum=WGS84 +units=m +no_defs"/>

    <type id="highway.cycleway" priority="1" numLanes="1" speed="5.56" allow="bicycle" oneway="0" width="2.00"/>
    <type id="highway.footway" priority="1" numLanes="1" speed="2.78" allow="pedestrian" oneway="1" width="2.00"/>
    <type id="highway.motorway" priority="14" numLanes="2" speed="39.44" allow="private emergency authority army vip passenger hov taxi bus coach delivery truck trailer motorcycle evehicle custom1 custom2" oneway="1"/>
    <type id="highway.primary" priority="12" numLanes="2" speed="27.78" disallow="tram rail_urban rail rail_electric rail_fast ship container cable_car subway aircraft wheelchair scooter drone" oneway="0"/>
    <type id="highway.primary_link" priority="7" numLanes="1" speed="22.22" disallow="tram rail_urban rail rail_electric rail_fast ship container cable_car subway aircraft wheelchair scooter drone" oneway="0"/>
    <type id="highway.residential" priority="3" numLanes="1" speed="13.89" disallow="tram rail_urban rail rail_electric rail_fast ship container cable_car subway aircraft wheelchair scooter drone" oneway="0"/>
    <type id="highway.secondary" priority="11" numLanes="1" speed="27.78" disallow="tram rail_urban rail rail_electric rail_fast ship container cable_car subway aircraft wheelchair scooter drone" oneway="0"/>
    <type id="highway.secondary_link" priority="6" numLanes="1" speed="22.22" disallow="tram rail_urban rail rail_electric rail_fast ship container cable_car subway aircraft wheelchair scooter drone" oneway="0"/>
    <type id="highway.service" priority="1" numLanes="1" speed="5.56" allow="pedestrian delivery bicycle" oneway="0"/>
    <type id="highway.tertiary" priority="10" numLanes="1" speed="22.22" disallow="tram rail_urban rail rail_electric rail_fast ship container cable_car subway aircraft wheelchair scooter drone" oneway="0"/>
    <type id="highway.trunk" priority="13" numLanes="2" speed="27.78" disallow="pedestrian bicycle tram rail_urban rail rail_electric rail_fast ship container cable_car subway aircraft wheelchair scooter drone" oneway="0"/>
    <type id="highway.trunk_link" priority="8" numLanes="1" speed="22.22" disallow="pedestrian bicycle tram rail_urban rail rail_electric rail_fast ship container cable_car subway aircraft wheelchair scooter drone" oneway="0"/>

    <edge id=":10171614353_0" function="internal">
        <lane id=":10171614353_0_0" index="0" disallow="tram rail_urban rail rail_electric rail_fast ship container cable_car subway aircraft wheelchair scooter drone" speed="20.84" length="23.46" shape="2862.77,-323.68 2883.22,-335.39"/>
        <lane id=":10171614353_0_1" index="1" disallow="tram rail_urban rail rail_electric rail_fast ship container cable_car subway aircraft wheelchair scooter drone" speed="20.84" length="23.46" shape="2864.45,-320.96 2884.71,-332.56"/>
    </edge>
    <edge id=":10180120742_0" function="internal">
        <lane id=":10180120742_0_0" index="0" disallow="tram rail_urban rail rail_electric rail_fast ship container cable_car subway aircraft wheelchair scooter drone" speed="27.78" length="4.44" width="3.50" shape="1813.79,172.19 1813.07,173.11 1812.62,173.76 1812.20,174.44 1811.63,175.45"/>
        <lane id=":10180120742_0_1" index="1" disallow="tram rail_urban rail rail_electric rail_fast ship container cable_car subway aircraft wheelchair scooter drone" speed="27.78" length="4.44" width="3.50" shape="1811.05,170.01 1810.24,171.05 1809.72,171.79 1809.25,172.56 1808.59,173.70"/>
        <lane id=":10180120742_0_2" index="2" disallow="tram rail_urban rail rail_electric rail_fast ship container cable_car subway aircraft wheelchair scooter drone" speed="27.78" length="4.44" width="3.50" shape="1808.31,167.83 1807.41,168.99 1806.82,169.81 1806.30,170.67 1805.56,171.95"/>
    </edge>
    <edge id=":10180120743_0" function="internal">
        <lane id=":10180120743_0_0" index="0" disallow="tram rail_urban rail rail_electric rail_fast ship container cable_car subway aircraft wheelchair scooter drone" speed="27.78" length="5.48" width="3.50" shape="1807.19,148.26 1808.27,146.92 1809.02,146.01 1809.82,145.14 1811.00,143.90"/>
        <lane id=":10180120743_0_1" index="1" disallow="tram rail_urban rail rail_electric rail_fast ship container cable_car subway aircraft wheelchair scooter drone" speed="27.78" length="5.48" width="3.50" shape="1809.93,150.44 1810.94,149.17 1811.66,148.32 1812.41,147.50 1813.53,146.32"/>
        <lane id=":10180120743_0_2" index="2" disallow="tram rail_urban rail rail_electric rail_fast ship container cable_car subway aircraft wheelchair scooter drone" speed="27.78" length="5.48" width="3.50" shape="1812.66,152.62 1813.62,151.43 1814.29,150.62 1815.00,149.85 1816.06,148.74"/>
    </edge>
    <edge id=":10180120744_0" function="internal">
        <lane id=":10180120744_0_0" index="0" disallow="tram rail_urban rail rail_electric rail_fast ship container cable_car subway aircraft wheelchair scooter drone" speed="27.78" length="4.33" width="3.50" shape="1825.41,157.99 1824.59,158.80 1824.04,159.37 1823.53,159.97 1822.81,160.87"/>
        <lane id=":10180120744_0_1" index="1" disallow="tram rail_urban rail rail_electric rail_fast ship container cable_car subway aircraft wheelchair scooter drone" speed="27.78" length="4.33" width="3.50" shape="1822.97,155.48 1822.05,156.38 1821.44,157.02 1820.87,157.69 1820.07,158.70"/>
        <lane id=":10180120744_0_2" index="2" disallow="tram rail_urban rail rail_electric rail_fast ship container cable_car subway aircraft wheelchair scooter drone" speed="27.78" length="4.33" width="3.50" shape="1820.53,152.97 1819.52,153.97 1818.84,154.67 1818.22,155.41 1817.33,156.52"/>
    </edge>
    <edge id=":10180120746_0" function="internal">
        <lane id=":10180120746_0_0" index="0" disallow="tram rail_urban rail rail_electric rail_fast ship container cable_car subway aircraft wheelchair scooter drone" speed="27.78" length="3.41" width="3.50" shape="1794.96,165.79 1796.71,162.81"/>
        <lane id=":10180120746_0_1" index="1" disallow="tram rail_urban rail rail_electric rail_fast ship container cable_car subway aircraft wheelchair scooter drone" speed="27.78" length="3.41" width="3.50" shape="1797.98,167.55 1799.71,164.62"/>
        <lane id=":10180120746_0_2" index="2" disallow="tram rail_urban rail rail_electric rail_fast ship container cable_car subway aircraft wheelchair scooter drone" speed="27.78" length="3.41" width="3.50" shape="1801.00,169.32 1802.71,166.42"/>
    </edge>
    <edge id=":10180120747_0" function="internal">
        <lane id=":10180120747_0_0" index="0" allow="pedestrian bicycle" speed="2.89" length="2.92" width="2.00" shape="2468.99,-783.14 2469.89,-783.19 2470.39,-782.94 2470.49,-782.39 2470.19,-781.54"/>
    </edge>
    <edge id=":10180120750_0" function="internal">
        <lane id=":10180120750_0_0" index="0" disallow="tram rail_urban rail rail_electric rail_fast ship container cable_car subway aircraft wheelchair scooter drone" speed="27.78" length="0.41" width="3.50" shape="2490.23,-760.58 2489.73,-760.12"/>
        <lane id=":10180120750_0_1" index="1" disallow="tram rail_urban rail rail_electric rail_fast ship container cable_car subway aircraft wheelchair scooter drone" speed="27.78" length="0.41" width="3.50" shape="2487.76,-763.06 2487.45,-762.78"/>
        <lane id=":10180120750_0_2" index="2" disallow="tram rail_urban rail rail_electric rail_fast ship container cable_car subway aircraft wheelchair scooter drone" speed="27.78" length="0.41" width="3.50" shape="2485.28,-765.53 2485.18,-765.44"/>
    </edge>
    <edge id=":10180671333_0" function="internal">
        <lane id=":10180671333_0_0" index="0" disallow="tram rail_urban rail rail_electric rail_fast ship container cable_car subway aircraft wheelchair scooter drone" speed="16.07" length="15.64" width="5.00" shape="2521.93,-739.07 2517.78,-741.42 2514.09,-742.03 2510.58,-741.82 2506.97,-741.71"/>
    </edge>
    <edge id=":10180671333_1" function="internal">
        <lane id=":10180671333_1_0" index="0" disallow="tram rail_urban rail rail_electric rail_fast ship container cable_car subway aircraft wheelchair scooter drone" speed="27.78" length="15.12" shape="2521.93,-739.07 2518.11,-741.50 2515.12,-742.60 2512.17,-743.74 2508.45,-746.30"/>
        <lane id=":10180671333_1_1" index="1" disallow="tram rail_urban rail rail_electric rail_fast ship container cable_car subway aircraft wheelchair scooter drone" speed="27.78" length="15.12" shape="2521.93,-739.07 2510.52,-748.73"/>
        <lane id=":10180671333_1_2" index="2" disallow="tram rail_urban rail rail_electric rail_fast ship container cable_car subway aircraft wheelchair scooter drone" speed="27.78" length="15.12" shape="2523.92,-741.57 2512.60,-751.17"/>
        <lane id=":10180671333_1_3" index="3" disallow="tram rail_urban rail rail_electric rail_fast ship container cable_car subway aircraft wheelchair scooter drone" speed="27.78" length="15.12" shape="2523.92,-741.57 2520.78,-744.75 2519.23,-747.51 2517.72,-750.31 2514.68,-753.60"/>
    </edge>
    <edge id=":10180671400_0" function="internal">
        <lane id=":10180671400_0_0" index="0" disallow="tram rail_urban rail rail_electric rail_fast ship container cable_car subway aircraft wheelchair scooter drone" speed="27.78" length="0.30" shape="2777.68,-443.18 2777.77,-443.00"/>
        <lane id=":10180671400_0_1" index="1" disallow="tram rail_urban rail rail_electric rail_fast ship container cable_car subway aircraft wheelchair scooter drone" speed="27.78" length="0.30" shape="2774.83,-441.72 2774.95,-441.48"/>
        <lane id=":10180671400_0_2" index="2" disallow="tram rail_urban rail rail_electric rail_fast ship container cable_car subway aircraft wheelchair scooter drone" speed="27.78" length="0.30" shape="2771.98,-440.27 2772.13,-439.97"/>
        <lane id=":10180671400_0_3" index="3" disallow="tram rail_urban rail rail_electric rail_fast ship container cable_car subway aircraft wheelchair scooter drone" speed="27.78" length="0.30" shape="2769.13,-438.81 2769.31,-438.46"/>
    </edge>
    <edge id=":10202001771_0" function="internal">
        <lane id=":10202001771_0_0" index="0" disallow="tram rail_urban rail rail_electric rail_fast ship container cable_car subway aircraft wheelchair scooter drone" speed="27.78" length="0.34" width="3.75" shape="471.87,-320.50 472.25,-320.21"/>
        <lane id=":10202001771_0_1" index="1" disallow="tram rail_urban rail rail_electric rail_fast ship container cable_car subway aircraft wheelchair scooter drone" speed="27.78" length="0.34" width="3.75" shape="469.65,-317.47 469.96,-317.24"/>
        <lane id=":10202001771_0_2" index="2" disallow="tram rail_urban rail rail_electric rail_fast ship container cable_car subway aircraft wheelchair scooter drone" speed="27.78" length="0.34" width="3.75" shape="467.43,-314.45 467.67,-314.27"/>
        <lane id=":10202001771_0_3" index="3" disallow="tram rail_urban rail rail_electric rail_fast ship container cable_car subway aircraft wheelchair scooter drone" speed="27.78" length="0.34" width="3.75" shape="465.21,-311.43 465.38,-311.30"/>
    </edge>
    <edge id=":10202001781_0" function="internal">
        <lane id=":10202001781_0_0" index="0" disallow="tram rail_urban rail rail_electric rail_fast ship container cable_car subway aircraft wheelchair scooter drone" speed="12.34" length="17.41" width="3.75" shape="527.11,-287.36 527.71,-283.01 528.93,-279.29 530.75,-276.19 533.19,-273.73"/>
        <lane id=":10202001781_0_1" index="1" disallow="tram rail_urban rail rail_electric rail_fast ship container cable_car subway aircraft wheelchair scooter drone" speed="13.05" length="17.41" width="3.75" shape="527.11,-287.36 527.69,-280.94 528.51,-276.04 529.57,-272.65 530.88,-270.78"/>
        <lane id=":10202001781_0_2" index="2" disallow="tram rail_urban rail rail_electric rail_fast ship container cable_car subway aircraft wheelchair scooter drone" speed="13.88" length="17.41" width="3.75" shape="527.11,-287.36 527.25,-283.98 527.57,-277.45 528.02,-271.00 528.57,-267.83"/>
    </edge>
    <edge id=":10202001781_3" function="internal">
        <lane id=":10202001781_3_0" index="0" disallow="tram rail_urban rail rail_electric rail_fast ship container cable_car subway aircraft wheelchair scooter drone" speed="27.78" length="15.53" width="3.75" shape="520.60,-283.02 533.19,-273.73"/>
        <lane id=":10202001781_3_1" index="1" disallow="tram rail_urban rail rail_electric rail_fast ship container cable_car subway aircraft wheelchair scooter drone" speed="27.78" length="15.53" width="3.75" shape="518.35,-280.02 530.88,-270.78"/>
        <lane id=":10202001781_3_2" index="2" disallow="tram rail_urban rail rail_electric rail_fast ship container cable_car subway aircraft wheelchair scooter drone" speed="27.78" length="15.53" width="3.75" shape="516.10,-277.02 528.57,-267.83"/>
        <lane id=":10202001781_3_3" index="3" disallow="tram rail_urban rail rail_electric rail_fast ship container cable_car subway aircraft wheelchair scooter drone" speed="27.78" length="15.53" width="3.75" shape="513.85,-274.02 526.26,-264.87"/>
    </edge>
    <edge id=":10203920310_0" function="internal">
        <lane id=":10203920310_0_0" index="0" disallow="tram rail_urban rail rail_electric rail_fast ship container cable_car subway aircraft wheelchair scooter drone" speed="13.65" length="13.37" width="7.00" shape="984.21,105.99 980.83,103.72 977.94,102.73 975.06,102.49 971.71,102.48"/>
    </edge>
    <edge id=":10203920310_1" function="internal">
        <lane id=":10203920310_1_0" index="0" disallow="tram rail_urban rail rail_electric rail_fast ship container cable_car subway aircraft wheelchair scooter drone" speed="27.78" length="8.79" shape="984.21,105.99 977.81,100.23"/>
        <lane id=":10203920310_1_1" index="1" disallow="tram rail_urban rail rail_electric rail_fast ship container cable_car subway aircraft wheelchair scooter drone" speed="27.78" length="8.79" shape="986.58,103.09 979.75,97.69"/>
        <lane id=":10203920310_1_2" index="2" disallow="tram rail_urban rail rail_electric rail_fast ship container cable_car subway aircraft wheelchair scooter drone" speed="27.78" length="8.79" shape="988.95,100.18 981.69,95.14"/>
        <lane id=":10203920310_1_3" index="3" disallow="tram rail_urban rail rail_electric rail_fast ship container cable_car subway aircraft wheelchair scooter drone" speed="27.78" length="8.79" shape="991.32,97.27 989.15,95.73 987.51,94.89 985.85,94.08 983.63,92.60"/>
    </edge>
    <edge id=":10203920324_0" function="internal">
        <lane id=":10203920324_0_0" index="0" disallow="tram rail_urban rail rail_electric rail_fast ship container cable_car subway aircraft wheelchair scooter drone" speed="27.78" length="13.06" shape="905.60,108.29 911.99,96.98"/>
        <lane id=":10203920324_0_1" index="1" disallow="tram rail_urban rail rail_electric rail_fast ship container cable_car subway aircraft wheelchair scooter drone" speed="27.78" length="13.06" shape="908.38,109.88 914.80,98.51"/>
        <lane id=":10203920324_0_2" index="2" disallow="tram rail_urban rail rail_electric rail_fast ship container cable_car subway aircraft wheelchair scooter drone" speed="27.78" length="13.06" shape="911.16,111.46 917.61,100.04"/>
    </edge>
    <edge id=":10203920324_3" function="internal">
        <lane id=":10203920324_3_0" index="0" disallow="tram rail_urban rail rail_electric rail_fast ship container cable_car subway aircraft wheelchair scooter drone" speed="7.01" length="10.29" shape="911.16,111.46 913.36,108.31 915.35,106.29 917.14,105.41 918.74,105.67"/>
        <lane id=":10203920324_3_1" index="1" disallow="tram rail_urban rail rail_electric rail_fast ship container cable_car subway aircraft wheelchair scooter drone" speed="6.08" length="7.50" shape="911.16,111.46 912.63,109.50 914.12,108.35 915.64,108.01 917.18,108.47"/>
    </edge>
    <edge id=":10203920325_0" function="internal">
        <lane id=":10203920325_0_0" index="0" disallow="tram rail_urban rail rail_electric rail_fast ship container cable_car subway aircraft wheelchair scooter drone" speed="27.78" length="5.71" shape="930.54,105.91 927.73,110.88"/>
        <lane id=":10203920325_0_1" index="1" disallow="tram rail_urban rail rail_electric rail_fast ship container cable_car subway aircraft wheelchair scooter drone" speed="27.78" length="5.71" shape="927.76,104.33 924.94,109.30"/>
        <lane id=":10203920325_0_2" index="2" disallow="tram rail_urban rail rail_electric rail_fast ship container cable_car subway aircraft wheelchair scooter drone" speed="27.78" length="5.71" shape="924.98,102.75 922.16,107.71"/>
    </edge>
    <edge id=":10203920325_3" function="internal">
        <lane id=":10203920325_3_0" index="0" disallow="tram rail_urban rail rail_electric rail_fast ship container cable_car subway aircraft wheelchair scooter drone" speed="5.83" length="7.10" shape="918.91,105.77 920.29,106.40 922.44,107.39 924.33,108.45 924.94,109.30"/>
        <lane id=":10203920325_3_1" index="1" disallow="tram rail_urban rail rail_electric rail_fast ship container cable_car subway aircraft wheelchair scooter drone" speed="4.97" length="4.88" shape="917.36,108.56 922.16,107.71"/>
    </edge>
    <edge id=":10203920328_0" function="internal">
        <lane id=":10203920328_0_0" index="0" disallow="tram rail_urban rail rail_electric rail_fast ship container cable_car subway aircraft wheelchair scooter drone" speed="7.04" length="10.93" shape="973.71,11.34 971.52,9.37 970.53,7.15 970.73,4.67 972.12,1.94"/>
        <lane id=":10203920328_0_1" index="1" disallow="tram rail_urban rail rail_electric rail_fast ship container cable_car subway aircraft wheelchair scooter drone" speed="5.28" length="5.68" shape="975.48,8.67 974.37,7.66 973.88,6.50 974.00,5.21 974.75,3.76"/>
    </edge>
    <edge id=":10203920328_2" function="internal">
        <lane id=":10203920328_2_0" index="0" disallow="tram rail_urban rail rail_electric rail_fast ship container cable_car subway aircraft wheelchair scooter drone" speed="16.67" length="12.69" shape="962.46,10.86 969.49,0.11"/>
        <lane id=":10203920328_2_1" index="1" disallow="tram rail_urban rail rail_electric rail_fast ship container cable_car subway aircraft wheelchair scooter drone" speed="16.67" length="12.69" shape="965.18,12.55 972.12,1.94"/>
        <lane id=":10203920328_2_2" index="2" disallow="tram rail_urban rail rail_electric rail_fast ship container cable_car subway aircraft wheelchair scooter drone" speed="16.67" length="12.69" shape="967.89,14.25 974.75,3.76"/>
    </edge>
    <edge id=":10203920329_0" function="internal">
        <lane id=":10203920329_0_0" index="0" disallow="tram rail_urban rail rail_electric rail_fast ship container cable_car subway aircraft wheelchair scooter drone" speed="16.67" length="11.39" shape="985.35,11.71 979.48,21.42"/>
        <lane id=":10203920329_0_1" index="1" disallow="tram rail_urban rail rail_electric rail_fast ship container cable_car subway aircraft wheelchair scooter drone" speed="16.67" length="11.39" shape="982.62,10.04 976.73,19.78"/>
        <lane id=":10203920329_0_2" index="2" disallow="tram rail_urban rail rail_electric rail_fast ship container cable_car subway aircraft wheelchair scooter drone" speed="16.67" length="11.39" shape="979.90,8.36 973.98,18.14"/>
    </edge>
    <edge id=":10203920329_3" function="internal">
        <lane id=":10203920329_3_0" index="0" disallow="tram rail_urban rail rail_electric rail_fast ship container cable_car subway aircraft wheelchair scooter drone" speed="5.97" length="7.62" shape="979.90,8.36 978.36,10.44 976.84,11.64 975.35,11.98 973.88,11.45"/>
        <lane id=":10203920329_3_1" index="1" disallow="tram rail_urban rail rail_electric rail_fast ship container cable_car subway aircraft wheelchair scooter drone" speed="4.94" length="4.89" shape="979.90,8.36 979.10,9.25 978.12,9.61 976.97,9.46 975.64,8.78"/>
    </edge>
    <edge id=":10225803199_0" function="internal">
        <lane id=":10225803199_0_0" index="0" disallow="tram rail_urban rail rail_electric rail_fast ship container cable_car subway aircraft wheelchair scooter drone" speed="27.78" length="0.10" shape="678.99,487.70 678.98,487.70"/>
        <lane id=":10225803199_0_1" index="1" disallow="tram rail_urban rail rail_electric rail_fast ship container cable_car subway aircraft wheelchair scooter drone" speed="27.78" length="0.10" shape="678.74,490.89 678.73,490.89"/>
        <lane id=":10225803199_0_2" index="2" disallow="tram rail_urban rail rail_electric rail_fast ship container cable_car subway aircraft wheelchair scooter drone" speed="27.78" length="0.10" shape="678.50,494.08 678.47,494.08"/>
        <lane id=":10225803199_0_3" index="3" disallow="tram rail_urban rail rail_electric rail_fast ship container cable_car subway aircraft wheelchair scooter drone" speed="27.78" length="0.10" shape="678.25,497.27 678.22,497.27"/>
    </edge>
    <edge id=":10225965954_0" function="internal">
        <lane id=":10225965954_0_0" index="0" disallow="tram rail_urban rail rail_electric rail_fast ship container cable_car subway aircraft wheelchair scooter drone" speed="22.22" length="0.32" shape="-95.35,977.16 -95.67,977.20"/>
        <lane id=":10225965954_0_1" index="1" disallow="tram rail_urban rail rail_electric rail_fast ship container cable_car subway aircraft wheelchair scooter drone" speed="22.22" length="0.32" shape="-95.82,973.99 -96.12,974.04"/>
    </edge>
    <edge id=":10225965954_2" function="internal">
        <lane id=":10225965954_2_0" index="0" disallow="tram rail_urban rail rail_electric rail_fast ship container cable_car subway aircraft wheelchair scooter drone" speed="22.22" length="0.28" shape="-97.02,967.70 -96.75,967.66"/>
        <lane id=":10225965954_2_1" index="1" disallow="tram rail_urban rail rail_electric rail_fast ship container cable_car subway aircraft wheelchair scooter drone" speed="22.22" length="0.28" shape="-96.57,970.87 -96.29,970.83"/>
    </edge>
    <edge id=":10225965961_0" function="internal">
        <lane id=":10225965961_0_0" index="0" disallow="tram rail_urban rail rail_electric rail_fast ship container cable_car subway aircraft wheelchair scooter drone" speed="22.22" length="0.30" shape="238.18,923.95 237.88,924.00"/>
        <lane id=":10225965961_0_1" index="1" disallow="tram rail_urban rail rail_electric rail_fast ship container cable_car subway aircraft wheelchair scooter drone" speed="22.22" length="0.30" shape="237.66,920.79 237.36,920.84"/>
    </edge>
    <edge id=":10225965961_2" function="internal">
        <lane id=":10225965961_2_0" index="0" disallow="tram rail_urban rail rail_electric rail_fast ship container cable_car subway aircraft wheelchair scooter drone" speed="22.22" length="0.30" shape="236.32,914.53 236.62,914.48"/>
        <lane id=":10225965961_2_1" index="1" disallow="tram rail_urban rail rail_electric rail_fast ship container cable_car subway aircraft wheelchair scooter drone" speed="22.22" length="0.30" shape="236.84,917.69 237.14,917.64"/>
    </edge>
    <edge id=":10225965972_0" function="internal">
        <lane id=":10225965972_0_0" index="0" disallow="tram rail_urban rail rail_electric rail_fast ship container cable_car subway aircraft wheelchair scooter drone" speed="22.22" length="0.23" shape="560.55,871.87 560.35,871.91"/>
        <lane id=":10225965972_0_1" index="1" disallow="tram rail_urban rail rail_electric rail_fast ship container cable_car subway aircraft wheelchair scooter drone" speed="22.22" length="0.23" shape="560.07,868.71 559.82,868.75"/>
    </edge>
    <edge id=":10225965972_2" function="internal">
        <lane id=":10225965972_2_0" index="0" disallow="tram rail_urban rail rail_electric rail_fast ship container cable_car subway aircraft wheelchair scooter drone" speed="22.22" length="0.34" shape="558.75,862.44 559.11,862.38"/>
        <lane id=":10225965972_2_1" index="1" disallow="tram rail_urban rail rail_electric rail_fast ship container cable_car subway aircraft wheelchair scooter drone" speed="22.22" length="0.34" shape="559.28,865.60 559.59,865.55"/>
    </edge>
    <edge id=":10260860315_0" function="internal">
        <lane id=":10260860315_0_0" index="0" disallow="tram rail_urban rail rail_electric rail_fast ship container cable_car subway aircraft wheelchair scooter drone" speed="22.22" length="0.19" shape="1068.76,922.75 1068.75,922.66"/>
        <lane id=":10260860315_0_1" index="1" disallow="tram rail_urban rail rail_electric rail_fast ship container cable_car subway aircraft wheelchair scooter drone" speed="22.22" length="0.19" shape="1071.93,922.30 1071.88,922.03"/>
    </edge>
    <edge id=":10260860315_2" function="internal">
        <lane id=":10260860315_2_0" index="0" disallow="tram rail_urban rail rail_electric rail_fast ship container cable_car subway aircraft wheelchair scooter drone" speed="22.22" length="0.56" shape="1078.16,920.78 1078.27,921.42"/>
        <lane id=":10260860315_2_1" index="1" disallow="tram rail_urban rail rail_electric rail_fast ship container cable_car subway aircraft wheelchair scooter drone" speed="22.22" length="0.56" shape="1075.02,921.41 1075.10,921.86"/>
    </edge>
    <edge id=":10261948255_0" function="internal">
        <lane id=":10261948255_0_0" index="0" disallow="tram rail_urban rail rail_electric rail_fast ship container cable_car subway aircraft wheelchair scooter drone" speed="10.34" length="12.12" width="4.00" shape="1283.34,1408.46 1279.84,1406.14 1276.85,1404.64 1274.36,1403.95 1272.37,1404.08"/>
    </edge>
    <edge id=":10261948255_1" function="internal">
        <lane id=":10261948255_1_0" index="0" disallow="tram rail_urban rail rail_electric rail_fast ship container cable_car subway aircraft wheelchair scooter drone" speed="27.78" length="13.42" width="4.00" shape="1285.13,1403.20 1281.30,1403.15 1278.65,1403.00 1276.05,1403.17 1272.37,1404.08"/>
        <lane id=":10261948255_1_1" index="1" disallow="tram rail_urban rail rail_electric rail_fast ship container cable_car subway aircraft wheelchair scooter drone" speed="27.78" length="13.42" width="4.00" shape="1285.01,1399.20 1280.86,1399.17 1277.99,1399.04 1275.17,1399.26 1271.19,1400.26"/>
    </edge>
    <edge id=":10261948258_0" function="internal">
        <lane id=":10261948258_0_0" index="0" disallow="tram rail_urban rail rail_electric rail_fast ship container cable_car subway aircraft wheelchair scooter drone" speed="11.05" length="6.43" width="5.00" shape="1299.14,1419.04 1298.31,1417.42 1297.35,1416.56 1296.12,1415.91 1294.48,1414.89"/>
    </edge>
    <edge id=":10261948258_1" function="internal">
        <lane id=":10261948258_1_0" index="0" disallow="tram rail_urban rail rail_electric rail_fast ship container cable_car subway aircraft wheelchair scooter drone" speed="22.22" length="7.91" shape="1299.14,1419.04 1298.73,1416.79 1299.02,1415.15 1299.33,1413.50 1298.92,1411.25"/>
    </edge>
    <edge id=":10261948258_2" function="internal">
        <lane id=":10261948258_2_0" index="0" disallow="tram rail_urban rail rail_electric rail_fast ship container cable_car subway aircraft wheelchair scooter drone" speed="5.77" length="3.61" width="8.00" shape="1299.14,1419.04 1299.98,1415.53"/>
    </edge>
    <edge id=":10261948258_9" function="internal">
        <lane id=":10261948258_9_0" index="0" disallow="tram rail_urban rail rail_electric rail_fast ship container cable_car subway aircraft wheelchair scooter drone" speed="5.77" length="8.08" width="8.00" shape="1299.98,1415.53 1301.51,1413.90 1303.74,1414.15 1306.65,1416.27"/>
    </edge>
    <edge id=":10261948258_3" function="internal">
        <lane id=":10261948258_3_0" index="0" disallow="tram rail_urban rail rail_electric rail_fast ship container cable_car subway aircraft wheelchair scooter drone" speed="7.68" length="5.73" width="8.00" shape="1308.24,1410.90 1307.33,1412.67 1306.76,1414.16 1306.54,1415.36 1306.65,1416.27"/>
    </edge>
    <edge id=":10261948258_4" function="internal">
        <lane id=":10261948258_4_0" index="0" disallow="tram rail_urban rail rail_electric rail_fast ship container cable_car subway aircraft wheelchair scooter drone" speed="8.45" length="16.82" width="5.00" shape="1308.24,1410.90 1305.26,1414.90 1301.98,1416.90 1298.38,1416.90 1294.48,1414.89"/>
    </edge>
    <edge id=":10261948258_5" function="internal">