<?xml version="1.0" encoding="UTF-8"?>

<!-- generated on 2025-06-04 00:33:59 by Eclipse SUMO netedit Version 1.22.0
<neteditConfiguration xmlns:xsi="http://www.w3.org/2001/XMLSchema-instance" xsi:noNamespaceSchemaLocation="http://sumo.dlr.de/xsd/neteditConfiguration.xsd">

    <input>
        <sumo-net-file value="vung01.net.xml"/>
    </input>

    <output>
        <output-file value="vung01.net.xml"/>
    </output>

    <processing>
        <geometry.min-radius.fix.railways value="false"/>
        <geometry.max-grade.fix value="false"/>
        <offset.disable-normalization value="true"/>
        <lefthand value="0"/>
    </processing>

    <junctions>
        <no-turnarounds value="true"/>
        <junctions.corner-detail value="5"/>
        <junctions.limit-turn-speed value="5.50"/>
        <rectangular-lane-cut value="0"/>
    </junctions>

    <pedestrian>
        <walkingareas value="0"/>
    </pedestrian>

</neteditConfiguration>
-->

<net version="1.20" junctionCornerDetail="5" limitTurnSpeed="5.50" xmlns:xsi="http://www.w3.org/2001/XMLSchema-instance" xsi:noNamespaceSchemaLocation="http://sumo.dlr.de/xsd/net_file.xsd">

    <location netOffset="-581155.35,-2324860.75" convBoundary="59.35,465.27,2548.37,2099.79" origBoundary="105.781051,20.960406,105.813160,21.045988" projParameter="+proj=utm +zone=48 +ellps=WGS84 +datum=WGS84 +units=m +no_defs"/>

    <type id="highway.footway" priority="1" numLanes="1" speed="2.78" allow="pedestrian" oneway="1" width="2.00"/>
    <type id="highway.primary" priority="12" numLanes="2" speed="27.78" disallow="tram rail_urban rail rail_electric rail_fast ship container cable_car subway aircraft wheelchair scooter drone" oneway="0"/>
    <type id="highway.primary_link" priority="7" numLanes="1" speed="22.22" disallow="tram rail_urban rail rail_electric rail_fast ship container cable_car subway aircraft wheelchair scooter drone" oneway="0"/>
    <type id="highway.residential" priority="3" numLanes="1" speed="13.89" disallow="tram rail_urban rail rail_electric rail_fast ship container cable_car subway aircraft wheelchair scooter drone" oneway="0"/>
    <type id="highway.secondary" priority="11" numLanes="1" speed="27.78" disallow="tram rail_urban rail rail_electric rail_fast ship container cable_car subway aircraft wheelchair scooter drone" oneway="0"/>
    <type id="highway.secondary_link" priority="6" numLanes="1" speed="22.22" disallow="tram rail_urban rail rail_electric rail_fast ship container cable_car subway aircraft wheelchair scooter drone" oneway="0"/>
    <type id="highway.service" priority="1" numLanes="1" speed="5.56" allow="pedestrian delivery bicycle" oneway="0"/>
    <type id="highway.tertiary" priority="10" numLanes="1" speed="22.22" disallow="tram rail_urban rail rail_electric rail_fast ship container cable_car subway aircraft wheelchair scooter drone" oneway="0"/>
    <type id="highway.trunk" priority="13" numLanes="2" speed="27.78" disallow="pedestrian bicycle tram rail_urban rail rail_electric rail_fast ship container cable_car subway aircraft wheelchair scooter drone" oneway="0"/>
    <type id="highway.trunk_link" priority="8" numLanes="1" speed="22.22" disallow="pedestrian bicycle tram rail_urban rail rail_electric rail_fast ship container cable_car subway aircraft wheelchair scooter drone" oneway="0"/>

    <edge id=":10259486689_0" function="internal">
        <lane id=":10259486689_0_0" index="0" disallow="tram rail_urban rail rail_electric rail_fast ship container cable_car subway aircraft wheelchair scooter drone" speed="27.78" length="0.36" shape="2215.98,802.86 2215.90,802.90"/>
        <lane id=":10259486689_0_1" index="1" disallow="tram rail_urban rail rail_electric rail_fast ship container cable_car subway aircraft wheelchair scooter drone" speed="27.78" length="0.36" shape="2214.66,799.95 2214.42,800.07"/>
        <lane id=":10259486689_0_2" index="2" disallow="tram rail_urban rail rail_electric rail_fast ship container cable_car subway aircraft wheelchair scooter drone" speed="27.78" length="0.36" shape="2213.33,797.04 2212.93,797.24"/>
        <lane id=":10259486689_0_3" index="3" disallow="tram rail_urban rail rail_electric rail_fast ship container cable_car subway aircraft wheelchair scooter drone" speed="27.78" length="0.36" shape="2212.00,794.13 2211.44,794.40"/>
    </edge>
    <edge id=":10259486690_0" function="internal">
        <lane id=":10259486690_0_0" index="0" disallow="tram rail_urban rail rail_electric rail_fast ship container cable_car subway aircraft wheelchair scooter drone" speed="27.78" length="0.30" shape="2141.71,770.75 2141.90,770.94"/>
        <lane id=":10259486690_0_1" index="1" disallow="tram rail_urban rail rail_electric rail_fast ship container cable_car subway aircraft wheelchair scooter drone" speed="27.78" length="0.30" shape="2139.49,773.06 2139.70,773.26"/>
        <lane id=":10259486690_0_2" index="2" disallow="tram rail_urban rail rail_electric rail_fast ship container cable_car subway aircraft wheelchair scooter drone" speed="27.78" length="0.30" shape="2137.27,775.37 2137.50,775.58"/>
        <lane id=":10259486690_0_3" index="3" disallow="tram rail_urban rail rail_electric rail_fast ship container cable_car subway aircraft wheelchair scooter drone" speed="27.78" length="0.30" shape="2135.06,777.68 2135.29,777.90"/>
    </edge>
    <edge id=":10259486691_0" function="internal">
        <lane id=":10259486691_0_0" index="0" disallow="tram rail_urban rail rail_electric rail_fast ship container cable_car subway aircraft wheelchair scooter drone" speed="27.78" length="0.49" width="6.00" shape="2157.66,860.41 2157.20,859.85"/>
        <lane id=":10259486691_0_1" index="1" disallow="tram rail_urban rail rail_electric rail_fast ship container cable_car subway aircraft wheelchair scooter drone" speed="27.78" length="0.49" width="6.00" shape="2162.16,856.45 2162.01,856.26"/>
    </edge>
    <edge id=":10259486694_0" function="internal">
        <lane id=":10259486694_0_0" index="0" disallow="tram rail_urban rail rail_electric rail_fast ship container cable_car subway aircraft wheelchair scooter drone" speed="27.78" length="0.24" shape="2200.18,841.01 2200.36,841.25"/>
        <lane id=":10259486694_0_1" index="1" disallow="tram rail_urban rail rail_electric rail_fast ship container cable_car subway aircraft wheelchair scooter drone" speed="27.78" length="0.24" shape="2197.63,842.94 2197.74,843.09"/>
    </edge>
    <edge id=":10260860245_0" function="internal">
        <lane id=":10260860245_0_0" index="0" disallow="tram rail_urban rail rail_electric rail_fast ship container cable_car subway aircraft wheelchair scooter drone" speed="22.22" length="1.26" shape="1282.67,1379.42 1283.41,1380.48"/>
        <lane id=":10260860245_0_1" index="1" disallow="tram rail_urban rail rail_electric rail_fast ship container cable_car subway aircraft wheelchair scooter drone" speed="22.22" length="1.26" shape="1285.29,1377.58 1286.00,1378.59"/>
    </edge>
    <edge id=":10260860245_2" function="internal">
        <lane id=":10260860245_2_0" index="0" disallow="tram rail_urban rail rail_electric rail_fast ship container cable_car subway aircraft wheelchair scooter drone" speed="22.22" length="1.16" shape="1291.18,1374.83 1290.53,1373.90"/>
        <lane id=":10260860245_2_1" index="1" disallow="tram rail_urban rail rail_electric rail_fast ship container cable_car subway aircraft wheelchair scooter drone" speed="22.22" length="1.16" shape="1288.59,1376.71 1287.91,1375.74"/>
    </edge>
    <edge id=":10260860315_0" function="internal">
        <lane id=":10260860315_0_0" index="0" disallow="tram rail_urban rail rail_electric rail_fast ship container cable_car subway aircraft wheelchair scooter drone" speed="22.22" length="0.19" shape="1068.76,922.75 1068.75,922.66"/>
        <lane id=":10260860315_0_1" index="1" disallow="tram rail_urban rail rail_electric rail_fast ship container cable_car subway aircraft wheelchair scooter drone" speed="22.22" length="0.19" shape="1071.93,922.30 1071.88,922.03"/>
    </edge>
    <edge id=":10260860315_2" function="internal">
        <lane id=":10260860315_2_0" index="0" disallow="tram rail_urban rail rail_electric rail_fast ship container cable_car subway aircraft wheelchair scooter drone" speed="22.22" length="0.56" shape="1078.16,920.78 1078.27,921.42"/>
        <lane id=":10260860315_2_1" index="1" disallow="tram rail_urban rail rail_electric rail_fast ship container cable_car subway aircraft wheelchair scooter drone" speed="22.22" length="0.56" shape="1075.02,921.41 1075.10,921.86"/>
    </edge>
    <edge id=":10261948229_0" function="internal">
        <lane id=":10261948229_0_0" index="0" disallow="tram rail_urban rail rail_electric rail_fast ship container cable_car subway aircraft wheelchair scooter drone" speed="20.84" length="4.66" width="4.00" shape="930.87,1500.89 935.26,1499.99"/>
        <lane id=":10261948229_0_1" index="1" disallow="tram rail_urban rail rail_electric rail_fast ship container cable_car subway aircraft wheelchair scooter drone" speed="20.84" length="4.66" width="4.00" shape="931.50,1504.84 936.23,1503.87"/>
    </edge>
    <edge id=":10261948255_0" function="internal">
        <lane id=":10261948255_0_0" index="0" disallow="tram rail_urban rail rail_electric rail_fast ship container cable_car subway aircraft wheelchair scooter drone" speed="10.76" length="10.50" width="4.00" shape="1284.01,1408.84 1280.90,1407.48 1278.19,1406.67 1275.87,1406.43 1273.95,1406.74"/>
    </edge>
    <edge id=":10261948255_1" function="internal">
        <lane id=":10261948255_1_0" index="0" disallow="tram rail_urban rail rail_electric rail_fast ship container cable_car subway aircraft wheelchair scooter drone" speed="27.78" length="11.09" width="4.00" shape="1284.48,1403.55 1273.95,1406.74"/>
        <lane id=":10261948255_1_1" index="1" disallow="tram rail_urban rail rail_electric rail_fast ship container cable_car subway aircraft wheelchair scooter drone" speed="27.78" length="11.09" width="4.00" shape="1283.34,1399.72 1272.65,1402.96"/>
    </edge>
    <edge id=":10261948258_0" function="internal">
        <lane id=":10261948258_0_0" index="0" disallow="tram rail_urban rail rail_electric rail_fast ship container cable_car subway aircraft wheelchair scooter drone" speed="11.06" length="6.43" width="5.00" shape="1299.14,1419.04 1298.31,1417.42 1297.35,1416.56 1296.12,1415.91 1294.48,1414.89"/>
    </edge>
    <edge id=":10261948258_1" function="internal">
        <lane id=":10261948258_1_0" index="0" disallow="tram rail_urban rail rail_electric rail_fast ship container cable_car subway aircraft wheelchair scooter drone" speed="22.22" length="6.45" shape="1299.14,1419.04 1298.88,1417.23 1299.29,1415.90 1299.71,1414.57 1299.46,1412.75"/>
    </edge>
    <edge id=":10261948258_2" function="internal">
        <lane id=":10261948258_2_0" index="0" disallow="tram rail_urban rail rail_electric rail_fast ship container cable_car subway aircraft wheelchair scooter drone" speed="5.77" length="3.10" width="8.00" shape="1299.14,1419.04 1299.87,1416.02"/>
    </edge>
    <edge id=":10261948258_9" function="internal">
        <lane id=":10261948258_9_0" index="0" disallow="tram rail_urban rail rail_electric rail_fast ship container cable_car subway aircraft wheelchair scooter drone" speed="5.77" length="8.58" width="8.00" shape="1299.87,1416.02 1299.98,1415.53 1301.51,1413.90 1303.74,1414.15 1306.65,1416.27"/>
    </edge>
    <edge id=":10261948258_3" function="internal">
        <lane id=":10261948258_3_0" index="0" disallow="tram rail_urban rail rail_electric rail_fast ship container cable_car subway aircraft wheelchair scooter drone" speed="7.55" length="5.52" width="8.00" shape="1308.14,1411.08 1307.27,1412.77 1306.74,1414.20 1306.53,1415.37 1306.65,1416.27"/>
    </edge>
    <edge id=":10261948258_4" function="internal">
        <lane id=":10261948258_4_0" index="0" disallow="tram rail_urban rail rail_electric rail_fast ship container cable_car subway aircraft wheelchair scooter drone" speed="8.41" length="16.65" width="5.00" shape="1308.14,1411.08 1305.21,1415.00 1301.95,1416.95 1298.38,1416.91 1294.48,1414.89"/>
    </edge>
    <edge id=":10261948258_5" function="internal">
        <lane id=":10261948258_5_0" index="0" disallow="tram rail_urban rail rail_electric rail_fast ship container cable_car subway aircraft wheelchair scooter drone" speed="6.52" length="13.11" shape="1308.14,1411.08 1305.47,1414.95 1303.14,1416.52 1301.13,1415.78 1299.46,1412.75"/>
    </edge>
    <edge id=":10261948258_6" function="internal">
        <lane id=":10261948258_6_0" index="0" disallow="tram rail_urban rail rail_electric rail_fast ship container cable_car subway aircraft wheelchair scooter drone" speed="22.22" length="6.36" width="8.00" shape="1302.47,1411.67 1303.42,1413.21 1304.55,1413.97 1305.69,1414.73 1306.65,1416.27"/>
    </edge>
    <edge id=":10261948258_7" function="internal">
        <lane id=":10261948258_7_0" index="0" disallow="tram rail_urban rail rail_electric rail_fast ship container cable_car subway aircraft wheelchair scooter drone" speed="6.65" length="7.08" width="5.00" shape="1302.47,1411.67 1303.66,1416.55 1302.84,1418.44"/>
    </edge>
    <edge id=":10261948258_8" function="internal">
        <lane id=":10261948258_8_0" index="0" disallow="tram rail_urban rail rail_electric rail_fast ship container cable_car subway aircraft wheelchair scooter drone" speed="3.65" length="1.44" shape="1302.47,1411.67 1302.13,1413.07"/>
    </edge>
    <edge id=":10261948258_10" function="internal">
        <lane id=":10261948258_10_0" index="0" disallow="tram rail_urban rail rail_electric rail_fast ship container cable_car subway aircraft wheelchair scooter drone" speed="6.65" length="9.53" width="5.00" shape="1302.84,1418.44 1302.72,1418.71 1299.66,1418.16 1294.48,1414.89"/>
    </edge>
    <edge id=":10261948258_11" function="internal">
        <lane id=":10261948258_11_0" index="0" disallow="tram rail_urban rail rail_electric rail_fast ship container cable_car subway aircraft wheelchair scooter drone" speed="3.65" length="3.23" shape="1302.13,1413.07 1301.51,1413.71 1300.62,1413.61 1299.46,1412.75"/>
    </edge>
    <edge id=":10261948262_0" function="internal">
        <lane id=":10261948262_0_0" index="0" disallow="tram rail_urban rail rail_electric rail_fast ship container cable_car subway aircraft wheelchair scooter drone" speed="11.40" length="11.61" width="5.00" shape="1322.00,1389.77 1318.96,1391.21 1317.22,1392.96 1316.04,1395.21 1314.69,1398.15"/>
    </edge>
    <edge id=":10261948262_1" function="internal">
        <lane id=":10261948262_1_0" index="0" disallow="tram rail_urban rail rail_electric rail_fast ship container cable_car subway aircraft wheelchair scooter drone" speed="20.84" length="11.70" width="4.00" shape="1322.00,1389.77 1311.19,1394.00"/>
        <lane id=":10261948262_1_1" index="1" disallow="tram rail_urban rail rail_electric rail_fast ship container cable_car subway aircraft wheelchair scooter drone" speed="20.84" length="11.70" width="4.00" shape="1320.72,1385.98 1309.74,1390.28"/>
    </edge>
    <edge id=":10261948266_0" function="internal">
        <lane id=":10261948266_0_0" index="0" disallow="tram rail_urban rail rail_electric rail_fast ship container cable_car subway aircraft wheelchair scooter drone" speed="12.05" length="12.90" width="4.00" shape="1264.75,1389.74 1268.23,1388.07 1270.37,1386.12 1271.83,1383.72 1273.26,1380.71"/>
    </edge>
    <edge id=":10261948266_1" function="internal">
        <lane id=":10261948266_1_0" index="0" disallow="tram rail_urban rail rail_electric rail_fast ship container cable_car subway aircraft wheelchair scooter drone" speed="27.78" length="13.11" shape="1264.75,1389.74 1277.36,1385.96"/>
        <lane id=":10261948266_1_1" index="1" disallow="tram rail_urban rail rail_electric rail_fast ship container cable_car subway aircraft wheelchair scooter drone" speed="27.78" length="13.11" shape="1266.11,1393.50 1278.37,1389.00"/>
    </edge>
    <edge id=":10261948267_0" function="internal">
        <lane id=":10261948267_0_0" index="0" disallow="tram rail_urban rail rail_electric rail_fast ship container cable_car subway aircraft wheelchair scooter drone" speed="11.04" length="15.02" shape="1274.45,1378.26 1275.14,1375.56 1274.87,1372.29 1273.63,1368.45 1271.43,1364.05"/>
    </edge>
    <edge id=":10261948267_1" function="internal">
        <lane id=":10261948267_1_0" index="0" disallow="tram rail_urban rail rail_electric rail_fast ship container cable_car subway aircraft wheelchair scooter drone" speed="10.40" length="21.22" width="4.00" shape="1274.45,1378.26 1278.28,1371.24 1281.85,1366.47 1285.18,1363.95 1288.27,1363.68"/>
    </edge>
    <edge id=":10261948267_2" function="internal">
        <lane id=":10261948267_2_0" index="0" disallow="tram rail_urban rail rail_electric rail_fast ship container cable_car subway aircraft wheelchair scooter drone" speed="7.33" length="15.81" shape="1274.45,1378.26 1277.43,1373.17 1280.26,1370.50 1282.94,1370.25 1285.47,1372.42"/>
    </edge>
    <edge id=":10261948267_3" function="internal">
        <lane id=":10261948267_3_0" index="0" disallow="tram rail_urban rail rail_electric rail_fast ship container cable_car subway aircraft wheelchair scooter drone" speed="22.22" length="14.87" shape="1280.29,1376.18 1277.57,1372.64 1275.61,1370.28 1273.77,1367.84 1271.43,1364.05"/>
        <lane id=":10261948267_3_1" index="1" disallow="tram rail_urban rail rail_electric rail_fast ship container cable_car subway aircraft wheelchair scooter drone" speed="22.22" length="14.87" shape="1282.88,1374.30 1280.22,1370.84 1278.29,1368.54 1276.49,1366.16 1274.21,1362.46"/>
    </edge>
    <edge id=":10261948267_5" function="internal">
        <lane id=":10261948267_5_0" index="0" disallow="tram rail_urban rail rail_electric rail_fast ship container cable_car subway aircraft wheelchair scooter drone" speed="7.59" length="5.62" width="4.00" shape="1282.88,1374.30 1279.99,1369.48"/>
    </edge>
    <edge id=":10261948267_6" function="internal">
        <lane id=":10261948267_6_0" index="0" disallow="tram rail_urban rail rail_electric rail_fast ship container cable_car subway aircraft wheelchair scooter drone" speed="3.65" length="1.44" shape="1282.88,1374.30 1282.82,1372.86"/>
    </edge>
    <edge id=":10261948267_11" function="internal">
        <lane id=":10261948267_11_0" index="0" disallow="tram rail_urban rail rail_electric rail_fast ship container cable_car subway aircraft wheelchair scooter drone" speed="7.59" length="15.84" width="4.00" shape="1279.99,1369.48 1279.03,1367.87 1278.64,1363.95 1281.72,1362.56 1288.27,1363.68"/>
    </edge>
    <edge id=":10261948267_12" function="internal">
        <lane id=":10261948267_12_0" index="0" disallow="tram rail_urban rail rail_electric rail_fast ship container cable_car subway aircraft wheelchair scooter drone" speed="3.65" length="3.23" shape="1282.82,1372.86 1283.23,1372.06 1284.12,1371.92 1285.47,1372.42"/>
    </edge>
    <edge id=":10261948267_7" function="internal">
        <lane id=":10261948267_7_0" index="0" disallow="tram rail_urban rail rail_electric rail_fast ship container cable_car subway aircraft wheelchair scooter drone" speed="10.65" length="10.03" width="4.00" shape="1279.76,1359.28 1281.45,1361.53 1283.19,1362.54 1285.33,1363.01 1288.27,1363.68"/>
    </edge>
    <edge id=":10261948267_8" function="internal">
        <lane id=":10261948267_8_0" index="0" disallow="tram rail_urban rail rail_electric rail_fast ship container cable_car subway aircraft wheelchair scooter drone" speed="22.22" length="14.18" shape="1279.76,1359.28 1281.96,1362.79 1283.68,1365.06 1285.52,1367.24 1288.06,1370.54"/>
        <lane id=":10261948267_8_1" index="1" disallow="tram rail_urban rail rail_electric rail_fast ship container cable_car subway aircraft wheelchair scooter drone" speed="22.22" length="14.18" shape="1276.99,1360.87 1279.23,1364.47 1280.99,1366.80 1282.87,1369.04 1285.47,1372.42"/>
    </edge>
    <edge id=":10261948267_10" function="internal">
        <lane id=":10261948267_10_0" index="0" disallow="tram rail_urban rail rail_electric rail_fast ship container cable_car subway aircraft wheelchair scooter drone" speed="3.65" length="1.44" shape="1276.99,1360.87 1276.89,1362.31"/>
    </edge>
    <edge id=":10261948267_13" function="internal">
        <lane id=":10261948267_13_0" index="0" disallow="tram rail_urban rail rail_electric rail_fast ship container cable_car subway aircraft wheelchair scooter drone" speed="3.65" length="3.23" shape="1276.89,1362.31 1276.39,1363.05 1275.50,1363.10 1274.21,1362.46"/>
    </edge>
    <edge id=":10261948268_0" function="internal">
        <lane id=":10261948268_0_0" index="0" disallow="tram rail_urban rail rail_electric rail_fast ship container cable_car subway aircraft wheelchair scooter drone" speed="15.47" length="14.45" width="4.00" shape="1305.33,1369.08 1308.61,1370.19 1311.64,1371.13 1315.01,1371.40 1319.34,1370.47"/>
    </edge>
    <edge id=":10261948268_1" function="internal">
        <lane id=":10261948268_1_0" index="0" disallow="tram rail_urban rail rail_electric rail_fast ship container cable_car subway aircraft wheelchair scooter drone" speed="20.84" length="14.51" width="4.00" shape="1305.71,1375.70 1319.34,1370.47"/>
        <lane id=":10261948268_1_1" index="1" disallow="tram rail_urban rail rail_electric rail_fast ship container cable_car subway aircraft wheelchair scooter drone" speed="20.84" length="14.51" width="4.00" shape="1307.16,1379.43 1320.62,1374.27"/>
    </edge>
    <edge id=":10261948295_0" function="internal">
        <lane id=":10261948295_0_0" index="0" disallow="tram rail_urban rail rail_electric rail_fast ship container cable_car subway aircraft wheelchair scooter drone" speed="27.78" length="0.27" shape="1278.77,1385.49 1279.06,1385.40"/>
        <lane id=":10261948295_0_1" index="1" disallow="tram rail_urban rail rail_electric rail_fast ship container cable_car subway aircraft wheelchair scooter drone" speed="27.78" length="0.27" shape="1279.77,1388.53 1280.00,1388.46"/>
    </edge>
    <edge id=":10261948296_0" function="internal">
        <lane id=":10261948296_0_0" index="0" disallow="tram rail_urban rail rail_electric rail_fast ship container cable_car subway aircraft wheelchair scooter drone" speed="27.78" length="0.34" width="4.00" shape="1286.29,1402.99 1285.81,1403.15"/>
        <lane id=":10261948296_0_1" index="1" disallow="tram rail_urban rail rail_electric rail_fast ship container cable_car subway aircraft wheelchair scooter drone" speed="27.78" length="0.34" width="4.00" shape="1284.82,1399.27 1284.66,1399.32"/>
    </edge>
    <edge id=":10261948297_0" function="internal">
        <lane id=":10261948297_0_0" index="0" disallow="tram rail_urban rail rail_electric rail_fast ship container cable_car subway aircraft wheelchair scooter drone" speed="27.78" length="0.30" width="4.00" shape="1300.23,1377.82 1300.50,1377.72"/>
        <lane id=":10261948297_0_1" index="1" disallow="tram rail_urban rail rail_electric rail_fast ship container cable_car subway aircraft wheelchair scooter drone" speed="27.78" length="0.30" width="4.00" shape="1301.65,1381.56 1301.94,1381.45"/>
    </edge>
    <edge id=":10261948298_0" function="internal">
        <lane id=":10261948298_0_0" index="0" disallow="tram rail_urban rail rail_electric rail_fast ship container cable_car subway aircraft wheelchair scooter drone" speed="27.78" length="0.24" width="4.00" shape="1307.47,1395.46 1307.13,1395.58"/>
        <lane id=":10261948298_0_1" index="1" disallow="tram rail_urban rail rail_electric rail_fast ship container cable_car subway aircraft wheelchair scooter drone" speed="27.78" length="0.24" width="4.00" shape="1306.01,1391.73 1305.90,1391.77"/>
    </edge>
    <edge id=":10261948299_0" function="internal">
        <lane id=":10261948299_0_0" index="0" disallow="tram rail_urban rail rail_electric rail_fast ship container cable_car subway aircraft wheelchair scooter drone" speed="22.22" length="1.27" shape="1296.09,1403.37 1296.61,1404.54"/>
    </edge>
    <edge id=":10261948299_1" function="internal">
        <lane id=":10261948299_1_0" index="0" disallow="tram rail_urban rail rail_electric rail_fast ship container cable_car subway aircraft wheelchair scooter drone" speed="22.22" length="1.05" shape="1299.54,1403.25 1299.10,1402.29"/>
    </edge>
    <edge id=":10302695346_0" function="internal">
        <lane id=":10302695346_0_0" index="0" disallow="tram rail_urban rail rail_electric rail_fast ship container cable_car subway aircraft wheelchair scooter drone" speed="27.78" length="0.29" shape="2476.48,1295.42 2476.34,1295.20"/>
        <lane id=":10302695346_0_1" index="1" disallow="tram rail_urban rail rail_electric rail_fast ship container cable_car subway aircraft wheelchair scooter drone" speed="27.78" length="0.29" shape="2479.15,1293.66 2478.98,1293.40"/>
    </edge>
    <edge id=":10304135400_0" function="internal">
        <lane id=":10304135400_0_0" index="0" disallow="tram rail_urban rail rail_electric rail_fast ship container cable_car subway aircraft wheelchair scooter drone" speed="8.56" length="14.24" width="6.00" shape="1468.70,1667.86 1466.32,1671.78 1465.27,1675.25 1465.53,1678.26 1467.12,1680.82"/>
    </edge>
    <edge id=":10304135400_1" function="internal">
        <lane id=":10304135400_1_0" index="0" disallow="tram rail_urban rail rail_electric rail_fast ship container cable_car subway aircraft wheelchair scooter drone" speed="13.89" length="16.88" shape="1468.70,1667.86 1459.21,1681.82"/>
    </edge>
    <edge id=":10304135400_2" function="internal">
        <lane id=":10304135400_2_0" index="0" disallow="tram rail_urban rail rail_electric rail_fast ship container cable_car subway aircraft wheelchair scooter drone" speed="3.65" length="4.67" shape="1468.70,1667.86 1467.35,1668.36 1466.46,1668.21 1466.05,1667.42 1466.12,1665.97"/>
    </edge>
    <edge id=":10304135400_3" function="internal">
        <lane id=":10304135400_3_0" index="0" disallow="tram rail_urban rail rail_electric rail_fast ship container cable_car subway aircraft wheelchair scooter drone" speed="8.48" length="12.88" shape="1455.56,1670.77 1457.98,1671.68 1460.55,1671.18 1463.26,1669.28 1466.12,1665.97"/>
    </edge>
    <edge id=":10304135400_4" function="internal">
        <lane id=":10304135400_4_0" index="0" disallow="tram rail_urban rail rail_electric rail_fast ship container cable_car subway aircraft wheelchair scooter drone" speed="27.78" length="15.34" width="6.00" shape="1455.56,1670.77 1458.62,1673.03 1461.59,1675.51 1464.43,1678.13 1467.12,1680.82"/>
    </edge>
    <edge id=":10304135400_5" function="internal">
        <lane id=":10304135400_5_0" index="0" disallow="tram rail_urban rail rail_electric rail_fast ship container cable_car subway aircraft wheelchair scooter drone" speed="8.59" length="13.07" shape="1455.56,1670.77 1458.54,1673.35 1460.14,1676.04 1460.36,1678.87 1459.21,1681.82"/>
    </edge>
    <edge id=":10304135400_6" function="internal">
        <lane id=":10304135400_6_0" index="0" disallow="tram rail_urban rail rail_electric rail_fast ship container cable_car subway aircraft wheelchair scooter drone" speed="13.89" length="17.15" shape="1456.48,1680.16 1466.12,1665.97"/>
    </edge>
    <edge id=":10304135400_7" function="internal">
        <lane id=":10304135400_7_0" index="0" disallow="tram rail_urban rail rail_electric rail_fast ship container cable_car subway aircraft wheelchair scooter drone" speed="7.05" length="12.91" width="6.00" shape="1456.48,1680.16 1458.60,1677.82 1461.08,1677.14 1463.92,1678.15 1467.12,1680.82"/>
    </edge>
    <edge id=":10304135400_8" function="internal">
        <lane id=":10304135400_8_0" index="0" disallow="tram rail_urban rail rail_electric rail_fast ship container cable_car subway aircraft wheelchair scooter drone" speed="3.65" length="4.67" shape="1456.48,1680.16 1457.79,1679.55 1458.68,1679.62 1459.15,1680.38 1459.21,1681.82"/>
    </edge>
    <edge id=":10304262525_0" function="internal">
        <lane id=":10304262525_0_0" index="0" disallow="tram rail_urban rail rail_electric rail_fast ship container cable_car subway aircraft wheelchair scooter drone" speed="13.89" length="0.10" shape="1424.53,1678.62 1424.53,1678.72"/>
    </edge>
    <edge id=":10304262525_1" function="internal">
        <lane id=":10304262525_1_0" index="0" disallow="tram rail_urban rail rail_electric rail_fast ship container cable_car subway aircraft wheelchair scooter drone" speed="13.89" length="0.30" shape="1421.33,1678.64 1421.34,1678.34"/>
    </edge>
    <edge id=":10304262536_0" function="internal">
        <lane id=":10304262536_0_0" index="0" disallow="tram rail_urban rail rail_electric rail_fast ship container cable_car subway aircraft wheelchair scooter drone" speed="27.78" length="9.24" width="6.00" shape="1460.03,1685.52 1457.95,1683.74 1456.48,1682.55 1454.92,1681.51 1452.53,1680.17"/>
    </edge>
    <edge id=":10304262536_1" function="internal">
        <lane id=":10304262536_1_0" index="0" disallow="tram rail_urban rail rail_electric rail_fast ship container cable_car subway aircraft wheelchair scooter drone" speed="6.32" length="6.64" shape="1460.03,1685.52 1458.12,1683.77 1456.87,1682.32 1456.29,1681.17 1456.38,1680.33"/>
    </edge>
    <edge id=":10304262536_2" function="internal">
        <lane id=":10304262536_2_0" index="0" disallow="tram rail_urban rail rail_electric rail_fast ship container cable_car subway aircraft wheelchair scooter drone" speed="5.96" length="7.11" width="6.00" shape="1459.11,1681.99 1458.40,1682.37 1457.07,1682.19 1455.11,1681.46 1452.53,1680.17"/>
    </edge>
    <edge id=":10304262536_3" function="internal">