<?xml version="1.0" encoding="UTF-8"?>

<!-- generated on 2025-05-29 06:40:41 by Eclipse SUMO netedit Version 1.22.0
<neteditConfiguration xmlns:xsi="http://www.w3.org/2001/XMLSchema-instance" xsi:noNamespaceSchemaLocation="http://sumo.dlr.de/xsd/neteditConfiguration.xsd">

    <input>
        <sumo-net-file value="vung01.net.xml"/>
    </input>

    <output>
        <output-file value="vung01.net.xml"/>
    </output>

    <processing>
        <geometry.min-radius.fix.railways value="false"/>
        <geometry.max-grade.fix value="false"/>
        <offset.disable-normalization value="true"/>
        <lefthand value="0"/>
    </processing>

    <junctions>
        <no-turnarounds value="true"/>
        <junctions.corner-detail value="5"/>
        <junctions.limit-turn-speed value="5.50"/>
        <rectangular-lane-cut value="0"/>
    </junctions>

    <pedestrian>
        <walkingareas value="0"/>
    </pedestrian>

</neteditConfiguration>
-->

<net version="1.20" junctionCornerDetail="5" limitTurnSpeed="5.50" xmlns:xsi="http://www.w3.org/2001/XMLSchema-instance" xsi:noNamespaceSchemaLocation="http://sumo.dlr.de/xsd/net_file.xsd">

    <location netOffset="-581155.35,-2324860.75" convBoundary="59.35,465.27,2548.37,2099.79" origBoundary="105.781051,20.960406,105.813160,21.045988" projParameter="+proj=utm +zone=48 +ellps=WGS84 +datum=WGS84 +units=m +no_defs"/>

    <type id="highway.footway" priority="1" numLanes="1" speed="2.78" allow="pedestrian" oneway="1" width="2.00"/>
    <type id="highway.primary" priority="12" numLanes="2" speed="27.78" disallow="tram rail_urban rail rail_electric rail_fast ship container cable_car subway aircraft wheelchair scooter drone" oneway="0"/>
    <type id="highway.primary_link" priority="7" numLanes="1" speed="22.22" disallow="tram rail_urban rail rail_electric rail_fast ship container cable_car subway aircraft wheelchair scooter drone" oneway="0"/>
    <type id="highway.residential" priority="3" numLanes="1" speed="13.89" disallow="tram rail_urban rail rail_electric rail_fast ship container cable_car subway aircraft wheelchair scooter drone" oneway="0"/>
    <type id="highway.secondary" priority="11" numLanes="1" speed="27.78" disallow="tram rail_urban rail rail_electric rail_fast ship container cable_car subway aircraft wheelchair scooter drone" oneway="0"/>
    <type id="highway.secondary_link" priority="6" numLanes="1" speed="22.22" disallow="tram rail_urban rail rail_electric rail_fast ship container cable_car subway aircraft wheelchair scooter drone" oneway="0"/>
    <type id="highway.service" priority="1" numLanes="1" speed="5.56" allow="pedestrian delivery bicycle" oneway="0"/>
    <type id="highway.tertiary" priority="10" numLanes="1" speed="22.22" disallow="tram rail_urban rail rail_electric rail_fast ship container cable_car subway aircraft wheelchair scooter drone" oneway="0"/>
    <type id="highway.trunk" priority="13" numLanes="2" speed="27.78" disallow="pedestrian bicycle tram rail_urban rail rail_electric rail_fast ship container cable_car subway aircraft wheelchair scooter drone" oneway="0"/>
    <type id="highway.trunk_link" priority="8" numLanes="1" speed="22.22" disallow="pedestrian bicycle tram rail_urban rail rail_electric rail_fast ship container cable_car subway aircraft wheelchair scooter drone" oneway="0"/>

    <edge id=":10220809101_0" function="internal">
        <lane id=":10220809101_0_0" index="0" disallow="tram rail_urban rail rail_electric rail_fast ship container cable_car subway aircraft wheelchair scooter drone" speed="27.78" length="0.29" shape="1305.71,1664.33 1305.93,1664.15"/>
    </edge>
    <edge id=":10259486689_0" function="internal">
        <lane id=":10259486689_0_0" index="0" disallow="tram rail_urban rail rail_electric rail_fast ship container cable_car subway aircraft wheelchair scooter drone" speed="27.78" length="0.46" shape="2216.76,805.08 2216.20,805.34"/>
        <lane id=":10259486689_0_1" index="1" disallow="tram rail_urban rail rail_electric rail_fast ship container cable_car subway aircraft wheelchair scooter drone" speed="27.78" length="0.46" shape="2215.35,802.21 2214.89,802.42"/>
        <lane id=":10259486689_0_2" index="2" disallow="tram rail_urban rail rail_electric rail_fast ship container cable_car subway aircraft wheelchair scooter drone" speed="27.78" length="0.46" shape="2213.94,799.33 2213.57,799.51"/>
        <lane id=":10259486689_0_3" index="3" disallow="tram rail_urban rail rail_electric rail_fast ship container cable_car subway aircraft wheelchair scooter drone" speed="27.78" length="0.46" shape="2212.54,796.46 2212.26,796.59"/>
    </edge>
    <edge id=":10259486690_0" function="internal">
        <lane id=":10259486690_0_0" index="0" disallow="tram rail_urban rail rail_electric rail_fast ship container cable_car subway aircraft wheelchair scooter drone" speed="27.78" length="0.38" shape="2141.87,770.90 2141.93,770.97"/>
        <lane id=":10259486690_0_1" index="1" disallow="tram rail_urban rail rail_electric rail_fast ship container cable_car subway aircraft wheelchair scooter drone" speed="27.78" length="0.38" shape="2139.53,773.09 2139.73,773.29"/>
        <lane id=":10259486690_0_2" index="2" disallow="tram rail_urban rail rail_electric rail_fast ship container cable_car subway aircraft wheelchair scooter drone" speed="27.78" length="0.38" shape="2137.19,775.27 2137.53,775.61"/>
        <lane id=":10259486690_0_3" index="3" disallow="tram rail_urban rail rail_electric rail_fast ship container cable_car subway aircraft wheelchair scooter drone" speed="27.78" length="0.38" shape="2134.85,777.46 2135.32,777.93"/>
    </edge>
    <edge id=":10259486691_0" function="internal">
        <lane id=":10259486691_0_0" index="0" disallow="tram rail_urban rail rail_electric rail_fast ship container cable_car subway aircraft wheelchair scooter drone" speed="27.78" length="0.30" shape="2162.45,858.43 2162.25,858.20"/>
        <lane id=":10259486691_0_1" index="1" disallow="tram rail_urban rail rail_electric rail_fast ship container cable_car subway aircraft wheelchair scooter drone" speed="27.78" length="0.30" shape="2164.85,856.31 2164.66,856.09"/>
    </edge>
    <edge id=":10259486694_0" function="internal">
        <lane id=":10259486694_0_0" index="0" disallow="tram rail_urban rail rail_electric rail_fast ship container cable_car subway aircraft wheelchair scooter drone" speed="27.78" length="0.24" shape="2200.18,841.01 2200.36,841.25"/>
        <lane id=":10259486694_0_1" index="1" disallow="tram rail_urban rail rail_electric rail_fast ship container cable_car subway aircraft wheelchair scooter drone" speed="27.78" length="0.24" shape="2197.63,842.94 2197.74,843.09"/>
    </edge>
    <edge id=":10260860245_0" function="internal">
        <lane id=":10260860245_0_0" index="0" disallow="tram rail_urban rail rail_electric rail_fast ship container cable_car subway aircraft wheelchair scooter drone" speed="22.22" length="0.76" shape="1284.50,1378.08 1284.92,1378.76"/>
        <lane id=":10260860245_0_1" index="1" disallow="tram rail_urban rail rail_electric rail_fast ship container cable_car subway aircraft wheelchair scooter drone" speed="22.22" length="0.76" shape="1287.22,1376.40 1287.61,1377.03"/>
    </edge>
    <edge id=":10260860245_2" function="internal">
        <lane id=":10260860245_2_0" index="0" disallow="tram rail_urban rail rail_electric rail_fast ship container cable_car subway aircraft wheelchair scooter drone" speed="22.22" length="0.65" shape="1292.99,1373.56 1292.67,1373.04"/>
        <lane id=":10260860245_2_1" index="1" disallow="tram rail_urban rail rail_electric rail_fast ship container cable_car subway aircraft wheelchair scooter drone" speed="22.22" length="0.65" shape="1290.30,1375.30 1289.95,1374.72"/>
    </edge>
    <edge id=":10260860251_0" function="internal">
        <lane id=":10260860251_0_0" index="0" disallow="tram rail_urban rail rail_electric rail_fast ship container cable_car subway aircraft wheelchair scooter drone" speed="22.22" length="0.30" shape="1164.51,1202.75 1164.33,1202.50"/>
        <lane id=":10260860251_0_1" index="1" disallow="tram rail_urban rail rail_electric rail_fast ship container cable_car subway aircraft wheelchair scooter drone" speed="22.22" length="0.30" shape="1167.13,1200.91 1166.95,1200.67"/>
    </edge>
    <edge id=":10260860251_2" function="internal">
        <lane id=":10260860251_2_0" index="0" disallow="tram rail_urban rail rail_electric rail_fast ship container cable_car subway aircraft wheelchair scooter drone" speed="22.22" length="0.30" shape="1172.19,1196.99 1172.37,1197.24"/>
        <lane id=":10260860251_2_1" index="1" disallow="tram rail_urban rail rail_electric rail_fast ship container cable_car subway aircraft wheelchair scooter drone" speed="22.22" length="0.30" shape="1169.57,1198.83 1169.75,1199.07"/>
    </edge>
    <edge id=":10260860254_0" function="internal">
        <lane id=":10260860254_0_0" index="0" disallow="tram rail_urban rail rail_electric rail_fast ship container cable_car subway aircraft wheelchair scooter drone" speed="22.22" length="0.30" shape="1148.78,1180.33 1148.60,1180.08"/>
        <lane id=":10260860254_0_1" index="1" disallow="tram rail_urban rail rail_electric rail_fast ship container cable_car subway aircraft wheelchair scooter drone" speed="22.22" length="0.30" shape="1151.40,1178.49 1151.22,1178.25"/>
    </edge>
    <edge id=":10260860254_2" function="internal">
        <lane id=":10260860254_2_0" index="0" disallow="tram rail_urban rail rail_electric rail_fast ship container cable_car subway aircraft wheelchair scooter drone" speed="22.22" length="0.30" shape="1156.46,1174.57 1156.64,1174.82"/>
        <lane id=":10260860254_2_1" index="1" disallow="tram rail_urban rail rail_electric rail_fast ship container cable_car subway aircraft wheelchair scooter drone" speed="22.22" length="0.30" shape="1153.84,1176.41 1154.02,1176.65"/>
    </edge>
    <edge id=":10260860273_0" function="internal">
        <lane id=":10260860273_0_0" index="0" disallow="tram rail_urban rail rail_electric rail_fast ship container cable_car subway aircraft wheelchair scooter drone" speed="22.22" length="0.38" shape="1073.25,956.06 1073.18,955.62"/>
        <lane id=":10260860273_0_1" index="1" disallow="tram rail_urban rail rail_electric rail_fast ship container cable_car subway aircraft wheelchair scooter drone" speed="22.22" length="0.38" shape="1076.40,955.52 1076.36,955.21"/>
    </edge>
    <edge id=":10260860273_2" function="internal">
        <lane id=":10260860273_2_0" index="0" disallow="tram rail_urban rail rail_electric rail_fast ship container cable_car subway aircraft wheelchair scooter drone" speed="22.22" length="0.11" shape="1082.71,954.40 1082.71,954.44"/>
        <lane id=":10260860273_2_1" index="1" disallow="tram rail_urban rail rail_electric rail_fast ship container cable_car subway aircraft wheelchair scooter drone" speed="22.22" length="0.11" shape="1079.53,954.80 1079.56,954.98"/>
    </edge>
    <edge id=":10260860313_0" function="internal">
        <lane id=":10260860313_0_0" index="0" disallow="tram rail_urban rail rail_electric rail_fast ship container cable_car subway aircraft wheelchair scooter drone" speed="22.22" length="0.29" shape="1049.39,814.57 1049.34,814.28"/>
        <lane id=":10260860313_0_1" index="1" disallow="tram rail_urban rail rail_electric rail_fast ship container cable_car subway aircraft wheelchair scooter drone" speed="22.22" length="0.29" shape="1052.55,814.10 1052.51,813.80"/>
    </edge>
    <edge id=":10260860313_2" function="internal">
        <lane id=":10260860313_2_0" index="0" disallow="tram rail_urban rail rail_electric rail_fast ship container cable_car subway aircraft wheelchair scooter drone" speed="22.22" length="0.31" shape="1058.83,812.84 1058.88,813.15"/>
        <lane id=":10260860313_2_1" index="1" disallow="tram rail_urban rail rail_electric rail_fast ship container cable_car subway aircraft wheelchair scooter drone" speed="22.22" length="0.31" shape="1055.67,813.32 1055.71,813.62"/>
    </edge>
    <edge id=":10260860315_0" function="internal">
        <lane id=":10260860315_0_0" index="0" disallow="tram rail_urban rail rail_electric rail_fast ship container cable_car subway aircraft wheelchair scooter drone" speed="22.22" length="0.19" shape="1068.76,922.75 1068.75,922.66"/>
        <lane id=":10260860315_0_1" index="1" disallow="tram rail_urban rail rail_electric rail_fast ship container cable_car subway aircraft wheelchair scooter drone" speed="22.22" length="0.19" shape="1071.93,922.30 1071.88,922.03"/>
    </edge>
    <edge id=":10260860315_2" function="internal">
        <lane id=":10260860315_2_0" index="0" disallow="tram rail_urban rail rail_electric rail_fast ship container cable_car subway aircraft wheelchair scooter drone" speed="22.22" length="0.56" shape="1078.16,920.78 1078.27,921.42"/>
        <lane id=":10260860315_2_1" index="1" disallow="tram rail_urban rail rail_electric rail_fast ship container cable_car subway aircraft wheelchair scooter drone" speed="22.22" length="0.56" shape="1075.02,921.41 1075.10,921.86"/>
    </edge>
    <edge id=":10261948229_0" function="internal">
        <lane id=":10261948229_0_0" index="0" disallow="tram rail_urban rail rail_electric rail_fast ship container cable_car subway aircraft wheelchair scooter drone" speed="20.84" length="4.68" shape="930.94,1501.26 932.26,1501.06 933.17,1500.90 934.07,1500.70 935.37,1500.37"/>
        <lane id=":10261948229_0_1" index="1" disallow="tram rail_urban rail rail_electric rail_fast ship container cable_car subway aircraft wheelchair scooter drone" speed="20.84" length="4.68" shape="931.40,1504.42 932.82,1504.21 933.79,1504.04 934.75,1503.82 936.14,1503.48"/>
    </edge>
    <edge id=":10261948255_0" function="internal">
        <lane id=":10261948255_0_0" index="0" disallow="tram rail_urban rail rail_electric rail_fast ship container cable_car subway aircraft wheelchair scooter drone" speed="12.62" length="13.91" shape="1290.02,1406.32 1286.91,1404.89 1284.03,1403.89 1280.82,1403.69 1276.71,1404.64"/>
    </edge>
    <edge id=":10261948255_1" function="internal">
        <lane id=":10261948255_1_0" index="0" disallow="tram rail_urban rail rail_electric rail_fast ship container cable_car subway aircraft wheelchair scooter drone" speed="27.78" length="13.85" shape="1289.87,1400.45 1276.71,1404.64"/>
        <lane id=":10261948255_1_1" index="1" disallow="tram rail_urban rail rail_electric rail_fast ship container cable_car subway aircraft wheelchair scooter drone" speed="27.78" length="13.85" shape="1288.91,1397.40 1275.66,1401.62"/>
    </edge>
    <edge id=":10261948258_0" function="internal">
        <lane id=":10261948258_0_0" index="0" disallow="tram rail_urban rail rail_electric rail_fast ship container cable_car subway aircraft wheelchair scooter drone" speed="12.31" length="9.63" shape="1306.86,1419.47 1305.74,1416.95 1304.43,1415.53 1302.69,1414.42 1300.28,1412.85"/>
    </edge>
    <edge id=":10261948258_1" function="internal">
        <lane id=":10261948258_1_0" index="0" disallow="tram rail_urban rail rail_electric rail_fast ship container cable_car subway aircraft wheelchair scooter drone" speed="22.22" length="11.01" shape="1306.86,1419.47 1303.06,1409.14"/>
    </edge>
    <edge id=":10261948258_2" function="internal">
        <lane id=":10261948258_2_0" index="0" disallow="tram rail_urban rail rail_electric rail_fast ship container cable_car subway aircraft wheelchair scooter drone" speed="3.65" length="1.44" shape="1306.86,1419.47 1307.24,1418.08"/>
    </edge>
    <edge id=":10261948258_9" function="internal">
        <lane id=":10261948258_9_0" index="0" disallow="tram rail_urban rail rail_electric rail_fast ship container cable_car subway aircraft wheelchair scooter drone" speed="3.65" length="3.23" shape="1307.24,1418.08 1307.87,1417.44 1308.75,1417.57 1309.89,1418.45"/>
    </edge>
    <edge id=":10261948258_3" function="internal">
        <lane id=":10261948258_3_0" index="0" disallow="tram rail_urban rail rail_electric rail_fast ship container cable_car subway aircraft wheelchair scooter drone" speed="11.43" length="11.31" shape="1310.09,1407.54 1308.95,1410.50 1308.61,1412.92 1308.96,1415.39 1309.89,1418.45"/>
    </edge>
    <edge id=":10261948258_4" function="internal">
        <lane id=":10261948258_4_0" index="0" disallow="tram rail_urban rail rail_electric rail_fast ship container cable_car subway aircraft wheelchair scooter drone" speed="7.24" length="13.14" shape="1310.09,1407.54 1307.87,1411.36 1305.50,1413.52 1302.97,1414.02 1300.28,1412.85"/>
    </edge>
    <edge id=":10261948258_5" function="internal">
        <lane id=":10261948258_5_0" index="0" disallow="tram rail_urban rail rail_electric rail_fast ship container cable_car subway aircraft wheelchair scooter drone" speed="5.85" length="11.38" shape="1310.09,1407.54 1308.06,1411.11 1306.21,1412.56 1304.54,1411.90 1303.06,1409.14"/>
    </edge>
    <edge id=":10261948258_6" function="internal">
        <lane id=":10261948258_6_0" index="0" disallow="tram rail_urban rail rail_electric rail_fast ship container cable_car subway aircraft wheelchair scooter drone" speed="22.22" length="11.09" shape="1306.07,1408.04 1309.89,1418.45"/>
    </edge>
    <edge id=":10261948258_7" function="internal">
        <lane id=":10261948258_7_0" index="0" disallow="tram rail_urban rail rail_electric rail_fast ship container cable_car subway aircraft wheelchair scooter drone" speed="6.32" length="5.33" shape="1306.07,1408.04 1307.37,1412.92 1307.32,1413.19"/>
    </edge>
    <edge id=":10261948258_8" function="internal">
        <lane id=":10261948258_8_0" index="0" disallow="tram rail_urban rail rail_electric rail_fast ship container cable_car subway aircraft wheelchair scooter drone" speed="3.65" length="1.44" shape="1306.07,1408.04 1305.73,1409.44"/>
    </edge>
    <edge id=":10261948258_10" function="internal">
        <lane id=":10261948258_10_0" index="0" disallow="tram rail_urban rail rail_electric rail_fast ship container cable_car subway aircraft wheelchair scooter drone" speed="6.32" length="9.45" shape="1307.32,1413.19 1306.85,1415.35 1304.48,1415.32 1300.28,1412.85"/>
    </edge>
    <edge id=":10261948258_11" function="internal">
        <lane id=":10261948258_11_0" index="0" disallow="tram rail_urban rail rail_electric rail_fast ship container cable_car subway aircraft wheelchair scooter drone" speed="3.65" length="3.23" shape="1305.73,1409.44 1305.11,1410.09 1304.22,1409.99 1303.06,1409.14"/>
    </edge>
    <edge id=":10261948259_0" function="internal">
        <lane id=":10261948259_0_0" index="0" disallow="tram rail_urban rail rail_electric rail_fast ship container cable_car subway aircraft wheelchair scooter drone" speed="22.22" length="0.23" shape="1290.32,1406.47 1290.26,1406.44 1290.22,1406.41 1290.18,1406.39 1290.12,1406.36"/>
    </edge>
    <edge id=":10261948262_0" function="internal">
        <lane id=":10261948262_0_0" index="0" disallow="tram rail_urban rail rail_electric rail_fast ship container cable_car subway aircraft wheelchair scooter drone" speed="10.03" length="8.97" shape="1321.47,1389.53 1319.14,1390.58 1317.84,1391.83 1316.93,1393.54 1315.80,1395.96"/>
    </edge>
    <edge id=":10261948262_1" function="internal">
        <lane id=":10261948262_1_0" index="0" disallow="tram rail_urban rail rail_electric rail_fast ship container cable_car subway aircraft wheelchair scooter drone" speed="20.84" length="8.93" shape="1321.47,1389.53 1313.20,1392.71"/>
        <lane id=":10261948262_1_1" index="1" disallow="tram rail_urban rail rail_electric rail_fast ship container cable_car subway aircraft wheelchair scooter drone" speed="20.84" length="8.93" shape="1320.45,1386.50 1312.05,1389.72"/>
    </edge>
    <edge id=":10261948266_0" function="internal">
        <lane id=":10261948266_0_0" index="0" disallow="tram rail_urban rail rail_electric rail_fast ship container cable_car subway aircraft wheelchair scooter drone" speed="12.08" length="13.07" shape="1264.47,1390.27 1268.00,1388.57 1270.17,1386.57 1271.64,1384.13 1273.08,1381.10"/>
    </edge>
    <edge id=":10261948266_1" function="internal">
        <lane id=":10261948266_1_0" index="0" disallow="tram rail_urban rail rail_electric rail_fast ship container cable_car subway aircraft wheelchair scooter drone" speed="27.78" length="13.07" shape="1264.47,1390.27 1276.86,1386.04"/>
        <lane id=":10261948266_1_1" index="1" disallow="tram rail_urban rail rail_electric rail_fast ship container cable_car subway aircraft wheelchair scooter drone" speed="27.78" length="13.07" shape="1265.56,1393.28 1277.89,1389.07"/>
    </edge>
    <edge id=":10261948267_0" function="internal">
        <lane id=":10261948267_0_0" index="0" disallow="tram rail_urban rail rail_electric rail_fast ship container cable_car subway aircraft wheelchair scooter drone" speed="8.66" length="7.54" shape="1276.44,1373.30 1277.03,1370.87 1277.26,1368.83 1277.13,1367.19 1276.64,1365.94"/>
    </edge>
    <edge id=":10261948267_1" function="internal">
        <lane id=":10261948267_1_0" index="0" disallow="tram rail_urban rail rail_electric rail_fast ship container cable_car subway aircraft wheelchair scooter drone" speed="9.26" length="20.96" shape="1276.44,1373.30 1278.82,1368.24 1282.36,1365.38 1287.07,1364.73 1292.94,1366.28"/>
    </edge>
    <edge id=":10261948267_2" function="internal">
        <lane id=":10261948267_2_0" index="0" disallow="tram rail_urban rail rail_electric rail_fast ship container cable_car subway aircraft wheelchair scooter drone" speed="7.17" length="17.32" shape="1276.44,1373.30 1278.61,1368.11 1281.17,1365.99 1284.14,1366.94 1287.52,1370.97"/>
    </edge>
    <edge id=":10261948267_3" function="internal">
        <lane id=":10261948267_3_0" index="0" disallow="tram rail_urban rail rail_electric rail_fast ship container cable_car subway aircraft wheelchair scooter drone" speed="22.22" length="10.10" shape="1282.13,1374.43 1276.64,1365.94"/>
        <lane id=":10261948267_3_1" index="1" disallow="tram rail_urban rail rail_electric rail_fast ship container cable_car subway aircraft wheelchair scooter drone" speed="22.22" length="10.10" shape="1284.82,1372.70 1279.34,1364.23"/>
    </edge>
    <edge id=":10261948267_5" function="internal">
        <lane id=":10261948267_5_0" index="0" disallow="tram rail_urban rail rail_electric rail_fast ship container cable_car subway aircraft wheelchair scooter drone" speed="7.20" length="5.84" shape="1284.82,1372.70 1282.21,1367.48"/>
    </edge>
    <edge id=":10261948267_6" function="internal">
        <lane id=":10261948267_6_0" index="0" disallow="tram rail_urban rail rail_electric rail_fast ship container cable_car subway aircraft wheelchair scooter drone" speed="3.65" length="1.44" shape="1284.82,1372.70 1284.85,1371.26"/>
    </edge>
    <edge id=":10261948267_11" function="internal">
        <lane id=":10261948267_11_0" index="0" disallow="tram rail_urban rail rail_electric rail_fast ship container cable_car subway aircraft wheelchair scooter drone" speed="7.20" length="13.78" shape="1282.21,1367.48 1282.13,1367.32 1282.59,1364.46 1286.19,1364.11 1292.94,1366.28"/>
    </edge>
    <edge id=":10261948267_12" function="internal">
        <lane id=":10261948267_12_0" index="0" disallow="tram rail_urban rail rail_electric rail_fast ship container cable_car subway aircraft wheelchair scooter drone" speed="3.65" length="3.23" shape="1284.85,1371.26 1285.30,1370.49 1286.19,1370.39 1287.52,1370.97"/>
    </edge>
    <edge id=":10261948267_7" function="internal">
        <lane id=":10261948267_7_0" index="0" disallow="tram rail_urban rail rail_electric rail_fast ship container cable_car subway aircraft wheelchair scooter drone" speed="12.76" length="10.15" shape="1284.74,1360.80 1286.50,1363.15 1288.12,1364.40 1290.10,1365.22 1292.94,1366.28"/>
    </edge>
    <edge id=":10261948267_8" function="internal">
        <lane id=":10261948267_8_0" index="0" disallow="tram rail_urban rail rail_electric rail_fast ship container cable_car subway aircraft wheelchair scooter drone" speed="22.22" length="10.06" shape="1284.74,1360.80 1290.21,1369.24"/>
        <lane id=":10261948267_8_1" index="1" disallow="tram rail_urban rail rail_electric rail_fast ship container cable_car subway aircraft wheelchair scooter drone" speed="22.22" length="10.06" shape="1282.04,1362.51 1287.52,1370.97"/>
    </edge>
    <edge id=":10261948267_10" function="internal">
        <lane id=":10261948267_10_0" index="0" disallow="tram rail_urban rail rail_electric rail_fast ship container cable_car subway aircraft wheelchair scooter drone" speed="3.65" length="1.44" shape="1282.04,1362.51 1282.01,1363.95"/>
    </edge>
    <edge id=":10261948267_13" function="internal">
        <lane id=":10261948267_13_0" index="0" disallow="tram rail_urban rail rail_electric rail_fast ship container cable_car subway aircraft wheelchair scooter drone" speed="3.65" length="3.23" shape="1282.01,1363.95 1281.55,1364.72 1280.66,1364.81 1279.34,1364.23"/>
    </edge>
    <edge id=":10261948268_0" function="internal">
        <lane id=":10261948268_0_0" index="0" disallow="tram rail_urban rail rail_electric rail_fast ship container cable_car subway aircraft wheelchair scooter drone" speed="12.86" length="13.26" shape="1302.94,1370.40 1306.03,1371.69 1308.78,1372.51 1311.80,1372.59 1315.71,1371.65"/>
    </edge>
    <edge id=":10261948268_1" function="internal">
        <lane id=":10261948268_1_0" index="0" disallow="tram rail_urban rail rail_electric rail_fast ship container cable_car subway aircraft wheelchair scooter drone" speed="20.84" length="13.23" shape="1303.31,1376.48 1315.71,1371.65"/>
        <lane id=":10261948268_1_1" index="1" disallow="tram rail_urban rail rail_electric rail_fast ship container cable_car subway aircraft wheelchair scooter drone" speed="20.84" length="13.23" shape="1304.48,1379.45 1316.73,1374.69"/>
    </edge>
    <edge id=":10261948287_0" function="internal">
        <lane id=":10261948287_0_0" index="0" disallow="tram rail_urban rail rail_electric rail_fast ship container cable_car subway aircraft wheelchair scooter drone" speed="22.22" length="0.30" shape="1273.86,1379.47 1274.00,1379.21"/>
    </edge>
    <edge id=":10261948288_0" function="internal">
        <lane id=":10261948288_0_0" index="0" disallow="tram rail_urban rail rail_electric rail_fast ship container cable_car subway aircraft wheelchair scooter drone" speed="22.22" length="0.30" shape="1300.10,1369.23 1300.38,1369.35"/>
    </edge>
    <edge id=":10261948295_0" function="internal">
        <lane id=":10261948295_0_0" index="0" disallow="tram rail_urban rail rail_electric rail_fast ship container cable_car subway aircraft wheelchair scooter drone" speed="27.78" length="0.30" shape="1280.89,1384.67 1281.18,1384.58"/>
        <lane id=":10261948295_0_1" index="1" disallow="tram rail_urban rail rail_electric rail_fast ship container cable_car subway aircraft wheelchair scooter drone" speed="27.78" length="0.30" shape="1281.92,1387.70 1282.20,1387.61"/>
    </edge>
    <edge id=":10261948296_0" function="internal">
        <lane id=":10261948296_0_0" index="0" disallow="tram rail_urban rail rail_electric rail_fast ship container cable_car subway aircraft wheelchair scooter drone" speed="27.78" length="0.10" shape="1290.16,1400.36 1290.10,1400.38"/>
        <lane id=":10261948296_0_1" index="1" disallow="tram rail_urban rail rail_electric rail_fast ship container cable_car subway aircraft wheelchair scooter drone" speed="27.78" length="0.10" shape="1289.19,1397.31 1289.14,1397.33"/>
    </edge>
    <edge id=":10261948297_0" function="internal">
        <lane id=":10261948297_0_0" index="0" disallow="tram rail_urban rail rail_electric rail_fast ship container cable_car subway aircraft wheelchair scooter drone" speed="27.78" length="0.10" shape="1301.31,1377.26 1301.29,1377.27"/>
        <lane id=":10261948297_0_1" index="1" disallow="tram rail_urban rail rail_electric rail_fast ship container cable_car subway aircraft wheelchair scooter drone" speed="27.78" length="0.10" shape="1302.49,1380.23 1302.47,1380.24"/>
    </edge>
    <edge id=":10261948298_0" function="internal">
        <lane id=":10261948298_0_0" index="0" disallow="tram rail_urban rail rail_electric rail_fast ship container cable_car subway aircraft wheelchair scooter drone" speed="27.78" length="0.10" shape="1309.02,1394.30 1308.95,1394.33"/>
        <lane id=":10261948298_0_1" index="1" disallow="tram rail_urban rail rail_electric rail_fast ship container cable_car subway aircraft wheelchair scooter drone" speed="27.78" length="0.10" shape="1307.88,1391.32 1307.95,1391.29"/>
    </edge>
    <edge id=":10261948299_0" function="internal">
        <lane id=":10261948299_0_0" index="0" disallow="tram rail_urban rail rail_electric rail_fast ship container cable_car subway aircraft wheelchair scooter drone" speed="22.22" length="1.25" shape="1300.06,1400.90 1300.53,1402.06"/>
    </edge>
    <edge id=":10261948299_1" function="internal">
        <lane id=":10261948299_1_0" index="0" disallow="tram rail_urban rail rail_electric rail_fast ship container cable_car subway aircraft wheelchair scooter drone" speed="22.22" length="1.12" shape="1303.49,1400.84 1303.06,1399.81"/>
    </edge>
    <edge id=":10261948315_0" function="internal">
        <lane id=":10261948315_0_0" index="0" disallow="tram rail_urban rail rail_electric rail_fast ship container cable_car subway aircraft wheelchair scooter drone" speed="22.22" length="0.30" shape="1314.19,1399.13 1314.05,1399.39"/>
    </edge>
    <edge id=":10302695346_0" function="internal">
        <lane id=":10302695346_0_0" index="0" disallow="tram rail_urban rail rail_electric rail_fast ship container cable_car subway aircraft wheelchair scooter drone" speed="27.78" length="0.29" shape="2476.48,1295.42 2476.34,1295.20"/>