<?xml version="1.0" encoding="UTF-8"?>

<!-- generated on 2025-05-29 14:15:46 by Eclipse SUMO netedit Version 1.22.0
<neteditConfiguration xmlns:xsi="http://www.w3.org/2001/XMLSchema-instance" xsi:noNamespaceSchemaLocation="http://sumo.dlr.de/xsd/neteditConfiguration.xsd">

    <input>
        <sumo-net-file value="vung01.net.xml"/>
    </input>

    <output>
        <output-file value="vung01.net.xml"/>
    </output>

    <processing>
        <geometry.min-radius.fix.railways value="false"/>
        <geometry.max-grade.fix value="false"/>
        <offset.disable-normalization value="true"/>
        <lefthand value="0"/>
    </processing>

    <junctions>
        <no-turnarounds value="true"/>
        <junctions.corner-detail value="5"/>
        <junctions.limit-turn-speed value="5.50"/>
        <rectangular-lane-cut value="0"/>
    </junctions>

    <pedestrian>
        <walkingareas value="0"/>
    </pedestrian>

    <visualisation>
        <gui-settings-file value="settings.xml"/>
    </visualisation>

</neteditConfiguration>
-->

<net version="1.20" junctionCornerDetail="5" limitTurnSpeed="5.50" xmlns:xsi="http://www.w3.org/2001/XMLSchema-instance" xsi:noNamespaceSchemaLocation="http://sumo.dlr.de/xsd/net_file.xsd">

    <location netOffset="-581155.35,-2324860.75" convBoundary="59.35,465.27,2548.37,2099.79" origBoundary="105.781051,20.960406,105.813160,21.045988" projParameter="+proj=utm +zone=48 +ellps=WGS84 +datum=WGS84 +units=m +no_defs"/>

    <type id="highway.footway" priority="1" numLanes="1" speed="2.78" allow="pedestrian" oneway="1" width="2.00"/>
    <type id="highway.primary" priority="12" numLanes="2" speed="27.78" disallow="tram rail_urban rail rail_electric rail_fast ship container cable_car subway aircraft wheelchair scooter drone" oneway="0"/>
    <type id="highway.primary_link" priority="7" numLanes="1" speed="22.22" disallow="tram rail_urban rail rail_electric rail_fast ship container cable_car subway aircraft wheelchair scooter drone" oneway="0"/>
    <type id="highway.residential" priority="3" numLanes="1" speed="13.89" disallow="tram rail_urban rail rail_electric rail_fast ship container cable_car subway aircraft wheelchair scooter drone" oneway="0"/>
    <type id="highway.secondary" priority="11" numLanes="1" speed="27.78" disallow="tram rail_urban rail rail_electric rail_fast ship container cable_car subway aircraft wheelchair scooter drone" oneway="0"/>
    <type id="highway.secondary_link" priority="6" numLanes="1" speed="22.22" disallow="tram rail_urban rail rail_electric rail_fast ship container cable_car subway aircraft wheelchair scooter drone" oneway="0"/>
    <type id="highway.service" priority="1" numLanes="1" speed="5.56" allow="pedestrian delivery bicycle" oneway="0"/>
    <type id="highway.tertiary" priority="10" numLanes="1" speed="22.22" disallow="tram rail_urban rail rail_electric rail_fast ship container cable_car subway aircraft wheelchair scooter drone" oneway="0"/>
    <type id="highway.trunk" priority="13" numLanes="2" speed="27.78" disallow="pedestrian bicycle tram rail_urban rail rail_electric rail_fast ship container cable_car subway aircraft wheelchair scooter drone" oneway="0"/>
    <type id="highway.trunk_link" priority="8" numLanes="1" speed="22.22" disallow="pedestrian bicycle tram rail_urban rail rail_electric rail_fast ship container cable_car subway aircraft wheelchair scooter drone" oneway="0"/>

    <edge id=":10259486689_0" function="internal">
        <lane id=":10259486689_0_0" index="0" disallow="tram rail_urban rail rail_electric rail_fast ship container cable_car subway aircraft wheelchair scooter drone" speed="27.78" length="0.36" shape="2215.98,802.86 2215.90,802.90"/>
        <lane id=":10259486689_0_1" index="1" disallow="tram rail_urban rail rail_electric rail_fast ship container cable_car subway aircraft wheelchair scooter drone" speed="27.78" length="0.36" shape="2214.66,799.95 2214.42,800.07"/>
        <lane id=":10259486689_0_2" index="2" disallow="tram rail_urban rail rail_electric rail_fast ship container cable_car subway aircraft wheelchair scooter drone" speed="27.78" length="0.36" shape="2213.33,797.04 2212.93,797.24"/>
        <lane id=":10259486689_0_3" index="3" disallow="tram rail_urban rail rail_electric rail_fast ship container cable_car subway aircraft wheelchair scooter drone" speed="27.78" length="0.36" shape="2212.00,794.13 2211.44,794.40"/>
    </edge>
    <edge id=":10259486690_0" function="internal">
        <lane id=":10259486690_0_0" index="0" disallow="tram rail_urban rail rail_electric rail_fast ship container cable_car subway aircraft wheelchair scooter drone" speed="27.78" length="0.30" shape="2141.71,770.75 2141.90,770.94"/>
        <lane id=":10259486690_0_1" index="1" disallow="tram rail_urban rail rail_electric rail_fast ship container cable_car subway aircraft wheelchair scooter drone" speed="27.78" length="0.30" shape="2139.49,773.06 2139.70,773.26"/>
        <lane id=":10259486690_0_2" index="2" disallow="tram rail_urban rail rail_electric rail_fast ship container cable_car subway aircraft wheelchair scooter drone" speed="27.78" length="0.30" shape="2137.27,775.37 2137.50,775.58"/>
        <lane id=":10259486690_0_3" index="3" disallow="tram rail_urban rail rail_electric rail_fast ship container cable_car subway aircraft wheelchair scooter drone" speed="27.78" length="0.30" shape="2135.06,777.68 2135.29,777.90"/>
    </edge>
    <edge id=":10259486691_0" function="internal">
        <lane id=":10259486691_0_0" index="0" disallow="tram rail_urban rail rail_electric rail_fast ship container cable_car subway aircraft wheelchair scooter drone" speed="27.78" length="0.49" width="6.00" shape="2157.66,860.41 2157.20,859.85"/>
        <lane id=":10259486691_0_1" index="1" disallow="tram rail_urban rail rail_electric rail_fast ship container cable_car subway aircraft wheelchair scooter drone" speed="27.78" length="0.49" width="6.00" shape="2162.16,856.45 2162.01,856.26"/>
    </edge>
    <edge id=":10259486694_0" function="internal">
        <lane id=":10259486694_0_0" index="0" disallow="tram rail_urban rail rail_electric rail_fast ship container cable_car subway aircraft wheelchair scooter drone" speed="27.78" length="0.24" shape="2200.18,841.01 2200.36,841.25"/>
        <lane id=":10259486694_0_1" index="1" disallow="tram rail_urban rail rail_electric rail_fast ship container cable_car subway aircraft wheelchair scooter drone" speed="27.78" length="0.24" shape="2197.63,842.94 2197.74,843.09"/>
    </edge>
    <edge id=":10260860245_0" function="internal">
        <lane id=":10260860245_0_0" index="0" disallow="tram rail_urban rail rail_electric rail_fast ship container cable_car subway aircraft wheelchair scooter drone" speed="22.22" length="1.26" shape="1282.67,1379.42 1283.41,1380.48"/>
        <lane id=":10260860245_0_1" index="1" disallow="tram rail_urban rail rail_electric rail_fast ship container cable_car subway aircraft wheelchair scooter drone" speed="22.22" length="1.26" shape="1285.29,1377.58 1286.00,1378.59"/>
    </edge>
    <edge id=":10260860245_2" function="internal">
        <lane id=":10260860245_2_0" index="0" disallow="tram rail_urban rail rail_electric rail_fast ship container cable_car subway aircraft wheelchair scooter drone" speed="22.22" length="1.16" shape="1291.18,1374.83 1290.53,1373.90"/>
        <lane id=":10260860245_2_1" index="1" disallow="tram rail_urban rail rail_electric rail_fast ship container cable_car subway aircraft wheelchair scooter drone" speed="22.22" length="1.16" shape="1288.59,1376.71 1287.91,1375.74"/>
    </edge>
    <edge id=":10260860315_0" function="internal">
        <lane id=":10260860315_0_0" index="0" disallow="tram rail_urban rail rail_electric rail_fast ship container cable_car subway aircraft wheelchair scooter drone" speed="22.22" length="0.19" shape="1068.76,922.75 1068.75,922.66"/>
        <lane id=":10260860315_0_1" index="1" disallow="tram rail_urban rail rail_electric rail_fast ship container cable_car subway aircraft wheelchair scooter drone" speed="22.22" length="0.19" shape="1071.93,922.30 1071.88,922.03"/>
    </edge>
    <edge id=":10260860315_2" function="internal">
        <lane id=":10260860315_2_0" index="0" disallow="tram rail_urban rail rail_electric rail_fast ship container cable_car subway aircraft wheelchair scooter drone" speed="22.22" length="0.56" shape="1078.16,920.78 1078.27,921.42"/>
        <lane id=":10260860315_2_1" index="1" disallow="tram rail_urban rail rail_electric rail_fast ship container cable_car subway aircraft wheelchair scooter drone" speed="22.22" length="0.56" shape="1075.02,921.41 1075.10,921.86"/>
    </edge>
    <edge id=":10261948229_0" function="internal">
        <lane id=":10261948229_0_0" index="0" disallow="tram rail_urban rail rail_electric rail_fast ship container cable_car subway aircraft wheelchair scooter drone" speed="20.84" length="4.72" shape="930.88,1501.30 935.37,1500.37"/>
        <lane id=":10261948229_0_1" index="1" disallow="tram rail_urban rail rail_electric rail_fast ship container cable_car subway aircraft wheelchair scooter drone" speed="20.84" length="4.72" shape="931.38,1504.46 936.14,1503.48"/>
    </edge>
    <edge id=":10261948255_0" function="internal">
        <lane id=":10261948255_0_0" index="0" disallow="tram rail_urban rail rail_electric rail_fast ship container cable_car subway aircraft wheelchair scooter drone" speed="11.35" length="10.45" shape="1282.87,1408.32 1280.05,1407.00 1277.98,1406.14 1275.88,1405.95 1272.98,1406.65"/>
    </edge>
    <edge id=":10261948255_1" function="internal">
        <lane id=":10261948255_1_0" index="0" disallow="tram rail_urban rail rail_electric rail_fast ship container cable_car subway aircraft wheelchair scooter drone" speed="27.78" length="11.01" shape="1283.45,1403.45 1272.98,1406.65"/>
        <lane id=":10261948255_1_1" index="1" disallow="tram rail_urban rail rail_electric rail_fast ship container cable_car subway aircraft wheelchair scooter drone" speed="27.78" length="11.01" shape="1282.53,1400.38 1271.94,1403.62"/>
    </edge>
    <edge id=":10261948258_0" function="internal">
        <lane id=":10261948258_0_0" index="0" disallow="tram rail_urban rail rail_electric rail_fast ship container cable_car subway aircraft wheelchair scooter drone" speed="11.06" length="6.43" width="5.00" shape="1299.14,1419.04 1298.31,1417.42 1297.35,1416.56 1296.12,1415.91 1294.48,1414.89"/>
    </edge>
    <edge id=":10261948258_1" function="internal">
        <lane id=":10261948258_1_0" index="0" disallow="tram rail_urban rail rail_electric rail_fast ship container cable_car subway aircraft wheelchair scooter drone" speed="22.22" length="6.45" shape="1299.14,1419.04 1298.88,1417.23 1299.29,1415.90 1299.71,1414.57 1299.46,1412.75"/>
    </edge>
    <edge id=":10261948258_2" function="internal">
        <lane id=":10261948258_2_0" index="0" disallow="tram rail_urban rail rail_electric rail_fast ship container cable_car subway aircraft wheelchair scooter drone" speed="5.77" length="3.10" width="8.00" shape="1299.14,1419.04 1299.87,1416.02"/>
    </edge>
    <edge id=":10261948258_9" function="internal">
        <lane id=":10261948258_9_0" index="0" disallow="tram rail_urban rail rail_electric rail_fast ship container cable_car subway aircraft wheelchair scooter drone" speed="5.77" length="8.58" width="8.00" shape="1299.87,1416.02 1299.98,1415.53 1301.51,1413.90 1303.74,1414.15 1306.65,1416.27"/>
    </edge>
    <edge id=":10261948258_3" function="internal">
        <lane id=":10261948258_3_0" index="0" disallow="tram rail_urban rail rail_electric rail_fast ship container cable_car subway aircraft wheelchair scooter drone" speed="7.55" length="5.52" width="8.00" shape="1308.14,1411.08 1307.27,1412.77 1306.74,1414.20 1306.53,1415.37 1306.65,1416.27"/>
    </edge>
    <edge id=":10261948258_4" function="internal">
        <lane id=":10261948258_4_0" index="0" disallow="tram rail_urban rail rail_electric rail_fast ship container cable_car subway aircraft wheelchair scooter drone" speed="8.41" length="16.65" width="5.00" shape="1308.14,1411.08 1305.21,1415.00 1301.95,1416.95 1298.38,1416.91 1294.48,1414.89"/>
    </edge>
    <edge id=":10261948258_5" function="internal">
        <lane id=":10261948258_5_0" index="0" disallow="tram rail_urban rail rail_electric rail_fast ship container cable_car subway aircraft wheelchair scooter drone" speed="6.52" length="13.11" shape="1308.14,1411.08 1305.47,1414.95 1303.14,1416.52 1301.13,1415.78 1299.46,1412.75"/>
    </edge>
    <edge id=":10261948258_6" function="internal">
        <lane id=":10261948258_6_0" index="0" disallow="tram rail_urban rail rail_electric rail_fast ship container cable_car subway aircraft wheelchair scooter drone" speed="22.22" length="6.36" width="8.00" shape="1302.47,1411.67 1303.42,1413.21 1304.55,1413.97 1305.69,1414.73 1306.65,1416.27"/>
    </edge>
    <edge id=":10261948258_7" function="internal">
        <lane id=":10261948258_7_0" index="0" disallow="tram rail_urban rail rail_electric rail_fast ship container cable_car subway aircraft wheelchair scooter drone" speed="6.65" length="7.08" width="5.00" shape="1302.47,1411.67 1303.66,1416.55 1302.84,1418.44"/>
    </edge>
    <edge id=":10261948258_8" function="internal">
        <lane id=":10261948258_8_0" index="0" disallow="tram rail_urban rail rail_electric rail_fast ship container cable_car subway aircraft wheelchair scooter drone" speed="3.65" length="1.44" shape="1302.47,1411.67 1302.13,1413.07"/>
    </edge>
    <edge id=":10261948258_10" function="internal">
        <lane id=":10261948258_10_0" index="0" disallow="tram rail_urban rail rail_electric rail_fast ship container cable_car subway aircraft wheelchair scooter drone" speed="6.65" length="9.53" width="5.00" shape="1302.84,1418.44 1302.72,1418.71 1299.66,1418.16 1294.48,1414.89"/>
    </edge>
    <edge id=":10261948258_11" function="internal">
        <lane id=":10261948258_11_0" index="0" disallow="tram rail_urban rail rail_electric rail_fast ship container cable_car subway aircraft wheelchair scooter drone" speed="3.65" length="3.23" shape="1302.13,1413.07 1301.51,1413.71 1300.62,1413.61 1299.46,1412.75"/>
    </edge>
    <edge id=":10261948262_0" function="internal">
        <lane id=":10261948262_0_0" index="0" disallow="tram rail_urban rail rail_electric rail_fast ship container cable_car subway aircraft wheelchair scooter drone" speed="11.36" length="11.62" width="5.00" shape="1322.95,1389.03 1319.84,1390.41 1317.96,1392.05 1316.65,1394.19 1315.23,1397.07"/>
    </edge>
    <edge id=":10261948262_1" function="internal">
        <lane id=":10261948262_1_0" index="0" disallow="tram rail_urban rail rail_electric rail_fast ship container cable_car subway aircraft wheelchair scooter drone" speed="20.84" length="11.94" shape="1322.95,1389.03 1311.89,1393.30"/>
        <lane id=":10261948262_1_1" index="1" disallow="tram rail_urban rail rail_electric rail_fast ship container cable_car subway aircraft wheelchair scooter drone" speed="20.84" length="11.94" shape="1321.93,1386.00 1310.72,1390.32"/>
    </edge>
    <edge id=":10261948266_0" function="internal">
        <lane id=":10261948266_0_0" index="0" disallow="tram rail_urban rail rail_electric rail_fast ship container cable_car subway aircraft wheelchair scooter drone" speed="12.04" length="13.00" shape="1264.47,1390.27 1267.98,1388.58 1270.14,1386.60 1271.61,1384.18 1273.04,1381.16"/>
    </edge>
    <edge id=":10261948266_1" function="internal">
        <lane id=":10261948266_1_0" index="0" disallow="tram rail_urban rail rail_electric rail_fast ship container cable_car subway aircraft wheelchair scooter drone" speed="27.78" length="12.99" shape="1264.47,1390.27 1276.83,1386.14"/>
        <lane id=":10261948266_1_1" index="1" disallow="tram rail_urban rail rail_electric rail_fast ship container cable_car subway aircraft wheelchair scooter drone" speed="27.78" length="12.99" shape="1265.56,1393.28 1277.84,1389.17"/>
    </edge>
    <edge id=":10261948267_0" function="internal">
        <lane id=":10261948267_0_0" index="0" disallow="tram rail_urban rail rail_electric rail_fast ship container cable_car subway aircraft wheelchair scooter drone" speed="10.62" length="13.98" shape="1274.73,1377.68 1275.32,1375.26 1275.00,1372.25 1273.79,1368.66 1271.68,1364.49"/>
    </edge>
    <edge id=":10261948267_1" function="internal">
        <lane id=":10261948267_1_0" index="0" disallow="tram rail_urban rail rail_electric rail_fast ship container cable_car subway aircraft wheelchair scooter drone" speed="10.13" length="20.31" shape="1274.73,1377.68 1278.41,1370.91 1281.81,1366.30 1284.95,1363.84 1287.82,1363.55"/>
    </edge>
    <edge id=":10261948267_2" function="internal">
        <lane id=":10261948267_2_0" index="0" disallow="tram rail_urban rail rail_electric rail_fast ship container cable_car subway aircraft wheelchair scooter drone" speed="7.09" length="15.02" shape="1274.73,1377.68 1277.57,1372.82 1280.26,1370.25 1282.79,1369.98 1285.17,1372.01"/>
    </edge>
    <edge id=":10261948267_3" function="internal">
        <lane id=":10261948267_3_0" index="0" disallow="tram rail_urban rail rail_electric rail_fast ship container cable_car subway aircraft wheelchair scooter drone" speed="22.22" length="13.86" shape="1279.99,1375.77 1277.45,1372.47 1275.60,1370.29 1273.87,1368.02 1271.68,1364.49"/>
        <lane id=":10261948267_3_1" index="1" disallow="tram rail_urban rail rail_electric rail_fast ship container cable_car subway aircraft wheelchair scooter drone" speed="22.22" length="13.86" shape="1282.58,1373.89 1280.10,1370.67 1278.29,1368.55 1276.60,1366.34 1274.46,1362.90"/>
    </edge>
    <edge id=":10261948267_5" function="internal">
        <lane id=":10261948267_5_0" index="0" disallow="tram rail_urban rail rail_electric rail_fast ship container cable_car subway aircraft wheelchair scooter drone" speed="7.50" length="5.41" shape="1282.58,1373.89 1279.80,1369.25"/>
    </edge>
    <edge id=":10261948267_6" function="internal">
        <lane id=":10261948267_6_0" index="0" disallow="tram rail_urban rail rail_electric rail_fast ship container cable_car subway aircraft wheelchair scooter drone" speed="3.65" length="1.44" shape="1282.58,1373.89 1282.52,1372.45"/>
    </edge>
    <edge id=":10261948267_11" function="internal">
        <lane id=":10261948267_11_0" index="0" disallow="tram rail_urban rail rail_electric rail_fast ship container cable_car subway aircraft wheelchair scooter drone" speed="7.50" length="15.47" shape="1279.80,1369.25 1278.83,1367.63 1278.45,1363.82 1281.45,1362.46 1287.82,1363.55"/>
    </edge>
    <edge id=":10261948267_12" function="internal">
        <lane id=":10261948267_12_0" index="0" disallow="tram rail_urban rail rail_electric rail_fast ship container cable_car subway aircraft wheelchair scooter drone" speed="3.65" length="3.23" shape="1282.52,1372.45 1282.94,1371.65 1283.82,1371.51 1285.17,1372.01"/>
    </edge>
    <edge id=":10261948267_7" function="internal">
        <lane id=":10261948267_7_0" index="0" disallow="tram rail_urban rail rail_electric rail_fast ship container cable_car subway aircraft wheelchair scooter drone" speed="10.18" length="9.11" shape="1280.02,1359.72 1281.57,1361.74 1283.17,1362.60 1285.15,1362.97 1287.82,1363.55"/>
    </edge>
    <edge id=":10261948267_8" function="internal">
        <lane id=":10261948267_8_0" index="0" disallow="tram rail_urban rail rail_electric rail_fast ship container cable_car subway aircraft wheelchair scooter drone" speed="22.22" length="13.16" shape="1280.02,1359.72 1282.06,1362.98 1283.68,1365.06 1285.40,1367.08 1287.76,1370.13"/>
        <lane id=":10261948267_8_1" index="1" disallow="tram rail_urban rail rail_electric rail_fast ship container cable_car subway aircraft wheelchair scooter drone" speed="22.22" length="13.16" shape="1277.24,1361.31 1279.33,1364.66 1280.99,1366.80 1282.75,1368.88 1285.17,1372.01"/>
    </edge>
    <edge id=":10261948267_10" function="internal">
        <lane id=":10261948267_10_0" index="0" disallow="tram rail_urban rail rail_electric rail_fast ship container cable_car subway aircraft wheelchair scooter drone" speed="3.65" length="1.44" shape="1277.24,1361.31 1277.14,1362.75"/>
    </edge>
    <edge id=":10261948267_13" function="internal">
        <lane id=":10261948267_13_0" index="0" disallow="tram rail_urban rail rail_electric rail_fast ship container cable_car subway aircraft wheelchair scooter drone" speed="3.65" length="3.23" shape="1277.14,1362.75 1276.65,1363.50 1275.75,1363.55 1274.46,1362.90"/>
    </edge>
    <edge id=":10261948268_0" function="internal">
        <lane id=":10261948268_0_0" index="0" disallow="tram rail_urban rail rail_electric rail_fast ship container cable_car subway aircraft wheelchair scooter drone" speed="13.38" length="13.53" shape="1306.96,1369.59 1310.10,1370.80 1312.92,1371.57 1316.03,1371.63 1320.04,1370.66"/>
    </edge>
    <edge id=":10261948268_1" function="internal">
        <lane id=":10261948268_1_0" index="0" disallow="tram rail_urban rail rail_electric rail_fast ship container cable_car subway aircraft wheelchair scooter drone" speed="20.84" length="13.63" shape="1307.24,1375.54 1320.04,1370.66"/>
        <lane id=":10261948268_1_1" index="1" disallow="tram rail_urban rail rail_electric rail_fast ship container cable_car subway aircraft wheelchair scooter drone" speed="20.84" length="13.63" shape="1308.40,1378.52 1321.06,1373.69"/>
    </edge>
    <edge id=":10261948295_0" function="internal">
        <lane id=":10261948295_0_0" index="0" disallow="tram rail_urban rail rail_electric rail_fast ship container cable_car subway aircraft wheelchair scooter drone" speed="27.78" length="0.27" shape="1278.77,1385.49 1279.06,1385.40"/>
        <lane id=":10261948295_0_1" index="1" disallow="tram rail_urban rail rail_electric rail_fast ship container cable_car subway aircraft wheelchair scooter drone" speed="27.78" length="0.27" shape="1279.77,1388.53 1280.00,1388.46"/>
    </edge>
    <edge id=":10261948296_0" function="internal">
        <lane id=":10261948296_0_0" index="0" disallow="tram rail_urban rail rail_electric rail_fast ship container cable_car subway aircraft wheelchair scooter drone" speed="27.78" length="0.27" shape="1286.11,1402.63 1285.73,1402.76"/>
        <lane id=":10261948296_0_1" index="1" disallow="tram rail_urban rail rail_electric rail_fast ship container cable_car subway aircraft wheelchair scooter drone" speed="27.78" length="0.27" shape="1284.94,1399.65 1284.81,1399.70"/>
    </edge>
    <edge id=":10261948297_0" function="internal">
        <lane id=":10261948297_0_0" index="0" disallow="tram rail_urban rail rail_electric rail_fast ship container cable_car subway aircraft wheelchair scooter drone" speed="27.78" length="0.30" shape="1300.38,1378.20 1300.64,1378.09"/>
        <lane id=":10261948297_0_1" index="1" disallow="tram rail_urban rail rail_electric rail_fast ship container cable_car subway aircraft wheelchair scooter drone" speed="27.78" length="0.30" shape="1301.51,1381.19 1301.80,1381.08"/>
    </edge>
    <edge id=":10261948298_0" function="internal">
        <lane id=":10261948298_0_0" index="0" disallow="tram rail_urban rail rail_electric rail_fast ship container cable_car subway aircraft wheelchair scooter drone" speed="27.78" length="0.10" shape="1307.21,1395.13 1307.12,1395.16"/>
        <lane id=":10261948298_0_1" index="1" disallow="tram rail_urban rail rail_electric rail_fast ship container cable_car subway aircraft wheelchair scooter drone" speed="27.78" length="0.10" shape="1306.05,1392.15 1306.14,1392.12"/>
    </edge>
    <edge id=":10261948299_0" function="internal">
        <lane id=":10261948299_0_0" index="0" disallow="tram rail_urban rail rail_electric rail_fast ship container cable_car subway aircraft wheelchair scooter drone" speed="22.22" length="0.87" shape="1296.09,1403.37 1296.44,1404.17"/>
    </edge>
    <edge id=":10261948299_1" function="internal">
        <lane id=":10261948299_1_0" index="0" disallow="tram rail_urban rail rail_electric rail_fast ship container cable_car subway aircraft wheelchair scooter drone" speed="22.22" length="0.65" shape="1299.37,1402.88 1299.10,1402.29"/>
    </edge>
    <edge id=":10302695346_0" function="internal">
        <lane id=":10302695346_0_0" index="0" disallow="tram rail_urban rail rail_electric rail_fast ship container cable_car subway aircraft wheelchair scooter drone" speed="27.78" length="0.29" shape="2476.48,1295.42 2476.34,1295.20"/>
        <lane id=":10302695346_0_1" index="1" disallow="tram rail_urban rail rail_electric rail_fast ship container cable_car subway aircraft wheelchair scooter drone" speed="27.78" length="0.29" shape="2479.15,1293.66 2478.98,1293.40"/>
    </edge>
    <edge id=":10304135400_0" function="internal">
        <lane id=":10304135400_0_0" index="0" disallow="tram rail_urban rail rail_electric rail_fast ship container cable_car subway aircraft wheelchair scooter drone" speed="8.50" length="14.03" shape="1468.75,1667.80 1466.33,1671.73 1465.22,1675.17 1465.39,1678.11 1466.86,1680.56"/>
    </edge>
    <edge id=":10304135400_1" function="internal">
        <lane id=":10304135400_1_0" index="0" disallow="tram rail_urban rail rail_electric rail_fast ship container cable_car subway aircraft wheelchair scooter drone" speed="13.89" length="17.41" shape="1468.75,1667.80 1458.98,1682.21"/>
    </edge>
    <edge id=":10304135400_2" function="internal">
        <lane id=":10304135400_2_0" index="0" disallow="tram rail_urban rail rail_electric rail_fast ship container cable_car subway aircraft wheelchair scooter drone" speed="3.65" length="4.67" shape="1468.75,1667.80 1467.39,1668.30 1466.51,1668.15 1466.10,1667.35 1466.16,1665.91"/>
    </edge>
    <edge id=":10304135400_3" function="internal">
        <lane id=":10304135400_3_0" index="0" disallow="tram rail_urban rail rail_electric rail_fast ship container cable_car subway aircraft wheelchair scooter drone" speed="8.33" length="12.84" shape="1455.68,1670.51 1458.04,1671.53 1460.58,1671.11 1463.28,1669.24 1466.16,1665.91"/>
    </edge>
    <edge id=":10304135400_4" function="internal">
        <lane id=":10304135400_4_0" index="0" disallow="tram rail_urban rail rail_electric rail_fast ship container cable_car subway aircraft wheelchair scooter drone" speed="27.78" length="15.05" shape="1455.68,1670.51 1458.61,1672.86 1461.46,1675.32 1464.21,1677.90 1466.86,1680.56"/>
    </edge>
    <edge id=":10304135400_5" function="internal">
        <lane id=":10304135400_5_0" index="0" disallow="tram rail_urban rail rail_electric rail_fast ship container cable_car subway aircraft wheelchair scooter drone" speed="8.86" length="13.53" shape="1455.68,1670.51 1458.55,1673.29 1460.05,1676.17 1460.19,1679.14 1458.98,1682.21"/>
    </edge>
    <edge id=":10304135400_6" function="internal">
        <lane id=":10304135400_6_0" index="0" disallow="tram rail_urban rail rail_electric rail_fast ship container cable_car subway aircraft wheelchair scooter drone" speed="13.89" length="17.68" shape="1456.24,1680.55 1466.16,1665.91"/>
    </edge>
    <edge id=":10304135400_7" function="internal">
        <lane id=":10304135400_7_0" index="0" disallow="tram rail_urban rail rail_electric rail_fast ship container cable_car subway aircraft wheelchair scooter drone" speed="7.06" length="12.94" shape="1456.24,1680.55 1458.45,1678.02 1460.95,1677.18 1463.76,1678.02 1466.86,1680.56"/>
    </edge>
    <edge id=":10304135400_8" function="internal">
        <lane id=":10304135400_8_0" index="0" disallow="tram rail_urban rail rail_electric rail_fast ship container cable_car subway aircraft wheelchair scooter drone" speed="3.65" length="4.67" shape="1456.24,1680.55 1457.55,1679.94 1458.44,1680.01 1458.92,1680.77 1458.98,1682.21"/>
    </edge>
    <edge id=":10304262525_0" function="internal">
        <lane id=":10304262525_0_0" index="0" disallow="tram rail_urban rail rail_electric rail_fast ship container cable_car subway aircraft wheelchair scooter drone" speed="13.89" length="0.10" shape="1424.53,1678.62 1424.53,1678.72"/>
    </edge>
    <edge id=":10304262525_1" function="internal">
        <lane id=":10304262525_1_0" index="0" disallow="tram rail_urban rail rail_electric rail_fast ship container cable_car subway aircraft wheelchair scooter drone" speed="13.89" length="0.30" shape="1421.33,1678.64 1421.34,1678.34"/>
    </edge>
    <edge id=":10304262536_0" function="internal">
        <lane id=":10304262536_0_0" index="0" disallow="tram rail_urban rail rail_electric rail_fast ship container cable_car subway aircraft wheelchair scooter drone" speed="27.78" length="9.51" shape="1460.20,1685.66 1458.11,1683.75 1456.75,1682.36 1455.28,1681.11 1452.90,1679.63"/>
    </edge>
    <edge id=":10304262536_1" function="internal">
        <lane id=":10304262536_1_0" index="0" disallow="tram rail_urban rail rail_electric rail_fast ship container cable_car subway aircraft wheelchair scooter drone" speed="5.98" length="6.57" shape="1460.20,1685.66 1458.19,1683.87 1456.85,1682.45 1456.17,1681.40 1456.14,1680.72"/>
    </edge>
    <edge id=":10304262536_2" function="internal">
        <lane id=":10304262536_2_0" index="0" disallow="tram rail_urban rail rail_electric rail_fast ship container cable_car subway aircraft wheelchair scooter drone" speed="5.78" length="6.69" shape="1458.87,1682.38 1457.84,1682.38 1456.02,1681.51 1454.13,1680.38 1452.90,1679.63"/>
    </edge>
    <edge id=":10304262536_3" function="internal">
        <lane id=":10304262536_3_0" index="0" disallow="tram rail_urban rail rail_electric rail_fast ship container cable_car subway aircraft wheelchair scooter drone" speed="3.65" length="4.67" shape="1458.87,1682.38 1457.56,1682.99 1456.67,1682.92 1456.20,1682.16 1456.14,1680.72"/>
    </edge>
    <edge id=":10304262537_0" function="internal">