<?xml version="1.0" encoding="UTF-8"?>

<!-- generated on 2025-05-29 16:32:29 by Eclipse SUMO netedit Version 1.22.0
<neteditConfiguration xmlns:xsi="http://www.w3.org/2001/XMLSchema-instance" xsi:noNamespaceSchemaLocation="http://sumo.dlr.de/xsd/neteditConfiguration.xsd">

    <input>
        <sumo-net-file value="vung02.net.xml"/>
    </input>

    <output>
        <output-file value="vung02.net.xml"/>
    </output>

    <processing>
        <geometry.min-radius.fix.railways value="false"/>
        <geometry.max-grade.fix value="false"/>
        <offset.disable-normalization value="true"/>
        <lefthand value="0"/>
    </processing>

    <junctions>
        <no-turnarounds value="true"/>
        <junctions.corner-detail value="5"/>
        <junctions.limit-turn-speed value="5.50"/>
        <rectangular-lane-cut value="0"/>
    </junctions>

    <pedestrian>
        <walkingareas value="0"/>
    </pedestrian>

</neteditConfiguration>
-->

<net version="1.20" junctionCornerDetail="5" limitTurnSpeed="5.50" xmlns:xsi="http://www.w3.org/2001/XMLSchema-instance" xsi:noNamespaceSchemaLocation="http://sumo.dlr.de/xsd/net_file.xsd">

    <location netOffset="-581227.04,-2323880.85" convBoundary="1211.29,0.00,2675.14,2328.80" origBoundary="105.781737,20.960406,105.813160,21.045988" projParameter="+proj=utm +zone=48 +ellps=WGS84 +datum=WGS84 +units=m +no_defs"/>

    <type id="highway.cycleway" priority="1" numLanes="1" speed="5.56" allow="bicycle" oneway="0" width="2.00"/>
    <type id="highway.footway" priority="1" numLanes="1" speed="2.78" allow="pedestrian" oneway="1" width="2.00"/>
    <type id="highway.primary" priority="12" numLanes="2" speed="27.78" disallow="tram rail_urban rail rail_electric rail_fast ship container cable_car subway aircraft wheelchair scooter drone" oneway="0"/>
    <type id="highway.primary_link" priority="7" numLanes="1" speed="22.22" disallow="tram rail_urban rail rail_electric rail_fast ship container cable_car subway aircraft wheelchair scooter drone" oneway="0"/>
    <type id="highway.residential" priority="3" numLanes="1" speed="13.89" disallow="tram rail_urban rail rail_electric rail_fast ship container cable_car subway aircraft wheelchair scooter drone" oneway="0"/>
    <type id="highway.secondary" priority="11" numLanes="1" speed="27.78" disallow="tram rail_urban rail rail_electric rail_fast ship container cable_car subway aircraft wheelchair scooter drone" oneway="0"/>
    <type id="highway.secondary_link" priority="6" numLanes="1" speed="22.22" disallow="tram rail_urban rail rail_electric rail_fast ship container cable_car subway aircraft wheelchair scooter drone" oneway="0"/>
    <type id="highway.service" priority="1" numLanes="1" speed="5.56" allow="pedestrian delivery bicycle" oneway="0"/>
    <type id="highway.tertiary" priority="10" numLanes="1" speed="22.22" disallow="tram rail_urban rail rail_electric rail_fast ship container cable_car subway aircraft wheelchair scooter drone" oneway="0"/>
    <type id="highway.trunk" priority="13" numLanes="2" speed="27.78" disallow="pedestrian bicycle tram rail_urban rail rail_electric rail_fast ship container cable_car subway aircraft wheelchair scooter drone" oneway="0"/>
    <type id="highway.trunk_link" priority="8" numLanes="1" speed="22.22" disallow="pedestrian bicycle tram rail_urban rail rail_electric rail_fast ship container cable_car subway aircraft wheelchair scooter drone" oneway="0"/>

    <edge id=":10180120740_0" function="internal">
        <lane id=":10180120740_0_0" index="0" allow="pedestrian bicycle" speed="5.56" length="1.73" width="2.00" shape="1844.14,1547.92 1843.65,1547.77 1843.33,1547.62 1843.06,1547.40 1842.71,1547.02"/>
    </edge>
    <edge id=":10180120740_1" function="internal">
        <lane id=":10180120740_1_0" index="0" allow="pedestrian bicycle" speed="2.89" length="2.92" width="2.00" shape="1844.14,1547.92 1843.56,1547.24 1843.45,1546.69 1843.83,1546.27 1844.69,1546.00"/>
    </edge>
    <edge id=":10180120740_2" function="internal">
        <lane id=":10180120740_2_0" index="0" allow="pedestrian bicycle" speed="5.56" length="0.58" width="2.00" shape="1844.21,1545.70 1844.33,1545.82 1844.42,1545.90 1844.53,1545.95 1844.69,1546.00"/>
    </edge>
    <edge id=":10180120740_3" function="internal">
        <lane id=":10180120740_3_0" index="0" allow="pedestrian bicycle" speed="2.89" length="2.92" width="2.00" shape="1844.21,1545.70 1844.33,1546.59 1844.12,1547.11 1843.58,1547.25 1842.71,1547.02"/>
    </edge>
    <edge id=":10180120741_0" function="internal">
        <lane id=":10180120741_0_0" index="0" allow="pedestrian bicycle" speed="8.22" length="7.16" width="2.00" shape="1857.57,1552.97 1856.95,1552.27 1855.68,1551.53 1853.77,1550.76 1851.20,1549.95"/>
    </edge>
    <edge id=":10180120741_1" function="internal">
        <lane id=":10180120741_1_0" index="0" disallow="tram rail_urban rail rail_electric rail_fast ship container cable_car subway aircraft wheelchair scooter drone" speed="27.78" length="1.96" shape="1857.57,1552.97 1856.79,1551.16"/>
        <lane id=":10180120741_1_1" index="1" disallow="tram rail_urban rail rail_electric rail_fast ship container cable_car subway aircraft wheelchair scooter drone" speed="27.78" length="1.96" shape="1860.51,1551.71 1859.73,1549.90"/>
    </edge>
    <edge id=":10180120741_3" function="internal">
        <lane id=":10180120741_3_0" index="0" allow="pedestrian bicycle" speed="4.37" length="5.94" width="2.00" shape="1851.75,1548.03 1856.79,1551.16"/>
    </edge>
    <edge id=":10180120741_4" function="internal">
        <lane id=":10180120741_4_0" index="0" allow="pedestrian bicycle" speed="2.89" length="2.92" width="2.00" shape="1851.75,1548.03 1852.33,1548.71 1852.44,1549.26 1852.06,1549.67 1851.20,1549.95"/>
    </edge>
    <edge id=":10180120742_0" function="internal">
        <lane id=":10180120742_0_0" index="0" disallow="tram rail_urban rail rail_electric rail_fast ship container cable_car subway aircraft wheelchair scooter drone" speed="27.78" length="4.40" shape="1741.84,1151.93 1741.13,1152.85 1740.67,1153.50 1740.26,1154.19 1739.68,1155.20"/>
        <lane id=":10180120742_0_1" index="1" disallow="tram rail_urban rail rail_electric rail_fast ship container cable_car subway aircraft wheelchair scooter drone" speed="27.78" length="4.40" shape="1739.34,1149.94 1738.54,1150.97 1738.02,1151.70 1737.56,1152.46 1736.91,1153.60"/>
        <lane id=":10180120742_0_2" index="2" disallow="tram rail_urban rail rail_electric rail_fast ship container cable_car subway aircraft wheelchair scooter drone" speed="27.78" length="4.40" shape="1736.84,1147.94 1735.95,1149.08 1735.37,1149.89 1734.86,1150.74 1734.13,1152.00"/>
    </edge>
    <edge id=":10180120743_0" function="internal">
        <lane id=":10180120743_0_0" index="0" disallow="tram rail_urban rail rail_electric rail_fast ship container cable_car subway aircraft wheelchair scooter drone" speed="27.78" length="5.44" shape="1735.75,1128.33 1736.81,1127.00 1737.56,1126.11 1738.35,1125.25 1739.52,1124.02"/>
        <lane id=":10180120743_0_1" index="1" disallow="tram rail_urban rail rail_electric rail_fast ship container cable_car subway aircraft wheelchair scooter drone" speed="27.78" length="5.44" shape="1738.25,1130.32 1739.26,1129.06 1739.97,1128.22 1740.72,1127.40 1741.83,1126.23"/>
        <lane id=":10180120743_0_2" index="2" disallow="tram rail_urban rail rail_electric rail_fast ship container cable_car subway aircraft wheelchair scooter drone" speed="27.78" length="5.44" shape="1740.75,1132.32 1741.71,1131.13 1742.38,1130.32 1743.08,1129.55 1744.14,1128.45"/>
    </edge>
    <edge id=":10180120744_0" function="internal">
        <lane id=":10180120744_0_0" index="0" disallow="tram rail_urban rail rail_electric rail_fast ship container cable_car subway aircraft wheelchair scooter drone" speed="27.78" length="4.39" shape="1753.53,1137.65 1752.69,1138.48 1752.13,1139.07 1751.61,1139.68 1750.87,1140.61"/>
        <lane id=":10180120744_0_1" index="1" disallow="tram rail_urban rail rail_electric rail_fast ship container cable_car subway aircraft wheelchair scooter drone" speed="27.78" length="4.39" shape="1751.30,1135.36 1750.37,1136.27 1749.76,1136.92 1749.18,1137.60 1748.36,1138.61"/>
        <lane id=":10180120744_0_2" index="2" disallow="tram rail_urban rail rail_electric rail_fast ship container cable_car subway aircraft wheelchair scooter drone" speed="27.78" length="4.39" shape="1749.07,1133.07 1748.05,1134.06 1747.38,1134.77 1746.75,1135.51 1745.86,1136.62"/>
    </edge>
    <edge id=":10180120745_0" function="internal">
        <lane id=":10180120745_0_0" index="0" allow="pedestrian bicycle" speed="5.56" length="0.28" width="2.00" shape="1706.79,1134.25 1706.64,1134.49"/>
    </edge>
    <edge id=":10180120745_1" function="internal">
        <lane id=":10180120745_1_0" index="0" allow="pedestrian bicycle" speed="2.89" length="2.92" width="2.00" shape="1706.79,1134.25 1705.96,1134.60 1705.41,1134.53 1705.13,1134.04 1705.13,1133.14"/>
    </edge>
    <edge id=":10180120745_2" function="internal">
        <lane id=":10180120745_2_0" index="0" allow="pedestrian bicycle" speed="5.56" length="0.30" width="2.00" shape="1704.96,1133.40 1705.13,1133.14"/>
    </edge>
    <edge id=":10180120745_3" function="internal">
        <lane id=":10180120745_3_0" index="0" allow="pedestrian bicycle" speed="2.89" length="2.92" width="2.00" shape="1704.96,1133.40 1705.79,1133.04 1706.35,1133.11 1706.63,1133.59 1706.64,1134.49"/>
    </edge>
    <edge id=":10180120746_0" function="internal">
        <lane id=":10180120746_0_0" index="0" disallow="tram rail_urban rail rail_electric rail_fast ship container cable_car subway aircraft wheelchair scooter drone" speed="27.78" length="3.44" shape="1723.52,1145.84 1725.29,1142.85"/>
        <lane id=":10180120746_0_1" index="1" disallow="tram rail_urban rail rail_electric rail_fast ship container cable_car subway aircraft wheelchair scooter drone" speed="27.78" length="3.44" shape="1726.29,1147.46 1728.03,1144.50"/>
        <lane id=":10180120746_0_2" index="2" disallow="tram rail_urban rail rail_electric rail_fast ship container cable_car subway aircraft wheelchair scooter drone" speed="27.78" length="3.44" shape="1729.05,1149.08 1730.78,1146.14"/>
    </edge>
    <edge id=":10180120747_0" function="internal">
        <lane id=":10180120747_0_0" index="0" allow="pedestrian bicycle" speed="2.89" length="2.92" width="2.00" shape="2397.30,196.76 2398.20,196.71 2398.70,196.96 2398.80,197.51 2398.50,198.36"/>
    </edge>
    <edge id=":10180120750_0" function="internal">
        <lane id=":10180120750_0_0" index="0" disallow="tram rail_urban rail rail_electric rail_fast ship container cable_car subway aircraft wheelchair scooter drone" speed="27.78" length="0.38" shape="2418.32,219.12 2417.86,219.54"/>
        <lane id=":10180120750_0_1" index="1" disallow="tram rail_urban rail rail_electric rail_fast ship container cable_car subway aircraft wheelchair scooter drone" speed="27.78" length="0.38" shape="2416.05,216.86 2415.78,217.11"/>
        <lane id=":10180120750_0_2" index="2" disallow="tram rail_urban rail rail_electric rail_fast ship container cable_car subway aircraft wheelchair scooter drone" speed="27.78" length="0.38" shape="2413.79,214.59 2413.70,214.68"/>
    </edge>
    <edge id=":10259486689_0" function="internal">
        <lane id=":10259486689_0_0" index="0" disallow="tram rail_urban rail rail_electric rail_fast ship container cable_car subway aircraft wheelchair scooter drone" speed="27.78" length="0.30" shape="2144.92,1785.05 2144.70,1785.16"/>
        <lane id=":10259486689_0_1" index="1" disallow="tram rail_urban rail rail_electric rail_fast ship container cable_car subway aircraft wheelchair scooter drone" speed="27.78" length="0.30" shape="2143.56,1782.15 2143.30,1782.27"/>
        <lane id=":10259486689_0_2" index="2" disallow="tram rail_urban rail rail_electric rail_fast ship container cable_car subway aircraft wheelchair scooter drone" speed="27.78" length="0.30" shape="2142.19,1779.26 2141.91,1779.39"/>
        <lane id=":10259486689_0_3" index="3" disallow="tram rail_urban rail rail_electric rail_fast ship container cable_car subway aircraft wheelchair scooter drone" speed="27.78" length="0.30" shape="2140.83,1776.37 2140.52,1776.51"/>
    </edge>
    <edge id=":10259486690_0" function="internal">
        <lane id=":10259486690_0_0" index="0" disallow="tram rail_urban rail rail_electric rail_fast ship container cable_car subway aircraft wheelchair scooter drone" speed="27.78" length="0.48" shape="2070.14,1750.76 2070.57,1751.24"/>
        <lane id=":10259486690_0_1" index="1" disallow="tram rail_urban rail rail_electric rail_fast ship container cable_car subway aircraft wheelchair scooter drone" speed="27.78" length="0.48" shape="2067.80,1752.95 2068.16,1753.35"/>
        <lane id=":10259486690_0_2" index="2" disallow="tram rail_urban rail rail_electric rail_fast ship container cable_car subway aircraft wheelchair scooter drone" speed="27.78" length="0.48" shape="2065.47,1755.14 2065.75,1755.46"/>
        <lane id=":10259486690_0_3" index="3" disallow="tram rail_urban rail rail_electric rail_fast ship container cable_car subway aircraft wheelchair scooter drone" speed="27.78" length="0.48" shape="2063.13,1757.32 2063.34,1757.56"/>
    </edge>
    <edge id=":10259486691_0" function="internal">
        <lane id=":10259486691_0_0" index="0" disallow="tram rail_urban rail rail_electric rail_fast ship container cable_car subway aircraft wheelchair scooter drone" speed="27.78" length="0.30" width="6.00" shape="2089.30,1842.32 2089.11,1842.09"/>
        <lane id=":10259486691_0_1" index="1" disallow="tram rail_urban rail rail_electric rail_fast ship container cable_car subway aircraft wheelchair scooter drone" speed="27.78" length="0.30" width="6.00" shape="2093.91,1838.49 2093.72,1838.25"/>
    </edge>
    <edge id=":10259486694_0" function="internal">
        <lane id=":10259486694_0_0" index="0" disallow="tram rail_urban rail rail_electric rail_fast ship container cable_car subway aircraft wheelchair scooter drone" speed="27.78" length="2.56" shape="2124.78,1823.87 2125.14,1824.48 2125.31,1824.94 2125.50,1825.39 2125.90,1825.96"/>
        <lane id=":10259486694_0_1" index="1" disallow="tram rail_urban rail rail_electric rail_fast ship container cable_car subway aircraft wheelchair scooter drone" speed="27.78" length="2.56" shape="2121.51,1826.17 2122.02,1826.79 2122.46,1827.14 2122.91,1827.48 2123.48,1828.05"/>
    </edge>
    <edge id=":10259486700_0" function="internal">
        <lane id=":10259486700_0_0" index="0" allow="pedestrian bicycle" speed="5.56" length="5.01" width="2.00" shape="1752.65,1437.61 1749.63,1433.62"/>
    </edge>
    <edge id=":10259486700_1" function="internal">
        <lane id=":10259486700_1_0" index="0" allow="pedestrian bicycle" speed="2.89" length="2.92" width="2.00" shape="1752.65,1437.61 1752.60,1436.71 1752.85,1436.21 1753.40,1436.11 1754.25,1436.40"/>
    </edge>
    <edge id=":10259486700_2" function="internal">
        <lane id=":10259486700_2_0" index="0" allow="pedestrian bicycle" speed="5.56" length="5.02" width="2.00" shape="1751.22,1432.41 1754.25,1436.40"/>
    </edge>
    <edge id=":10259486700_3" function="internal">
        <lane id=":10259486700_3_0" index="0" allow="pedestrian bicycle" speed="2.89" length="2.92" width="2.00" shape="1751.22,1432.41 1751.28,1433.31 1751.03,1433.81 1750.48,1433.91 1749.63,1433.62"/>
    </edge>
    <edge id=":10259486701_0" function="internal">
        <lane id=":10259486701_0_0" index="0" disallow="tram rail_urban rail rail_electric rail_fast ship container cable_car subway aircraft wheelchair scooter drone" speed="27.78" length="5.00" shape="1787.43,1412.12 1789.84,1416.50"/>
        <lane id=":10259486701_0_1" index="1" disallow="tram rail_urban rail rail_electric rail_fast ship container cable_car subway aircraft wheelchair scooter drone" speed="27.78" length="5.00" shape="1784.62,1413.67 1787.04,1418.04"/>
        <lane id=":10259486701_0_2" index="2" disallow="tram rail_urban rail rail_electric rail_fast ship container cable_car subway aircraft wheelchair scooter drone" speed="27.78" length="5.00" shape="1781.82,1415.21 1784.23,1419.59"/>
    </edge>
    <edge id=":10259486702_0" function="internal">
        <lane id=":10259486702_0_0" index="0" disallow="tram rail_urban rail rail_electric rail_fast ship container cable_car subway aircraft wheelchair scooter drone" speed="27.78" length="6.34" shape="1764.94,1430.46 1762.33,1424.70"/>
        <lane id=":10259486702_0_1" index="1" disallow="tram rail_urban rail rail_electric rail_fast ship container cable_car subway aircraft wheelchair scooter drone" speed="27.78" length="6.34" shape="1767.86,1429.15 1765.24,1423.38"/>
        <lane id=":10259486702_0_2" index="2" disallow="tram rail_urban rail rail_electric rail_fast ship container cable_car subway aircraft wheelchair scooter drone" speed="27.78" length="6.34" shape="1770.78,1427.83 1768.16,1422.06"/>
        <lane id=":10259486702_0_3" index="3" disallow="tram rail_urban rail rail_electric rail_fast ship container cable_car subway aircraft wheelchair scooter drone" speed="27.78" length="6.34" shape="1773.70,1426.51 1771.07,1420.74"/>
        <lane id=":10259486702_0_4" index="4" disallow="tram rail_urban rail rail_electric rail_fast ship container cable_car subway aircraft wheelchair scooter drone" speed="27.78" length="6.34" shape="1776.62,1425.20 1773.98,1419.42"/>
    </edge>
    <edge id=":10259486703_0" function="internal">
        <lane id=":10259486703_0_0" index="0" allow="pedestrian bicycle" speed="5.56" length="4.94" width="2.00" shape="1738.93,1413.77 1736.89,1409.28"/>
    </edge>
    <edge id=":10259486703_1" function="internal">
        <lane id=":10259486703_1_0" index="0" allow="pedestrian bicycle" speed="2.89" length="2.92" width="2.00" shape="1738.93,1413.77 1739.01,1412.88 1739.33,1412.42 1739.89,1412.40 1740.69,1412.82"/>
    </edge>
    <edge id=":10259486703_2" function="internal">
        <lane id=":10259486703_2_0" index="0" allow="pedestrian bicycle" speed="5.56" length="4.75" width="2.00" shape="1738.73,1408.49 1740.69,1412.82"/>
    </edge>
    <edge id=":10259486703_3" function="internal">
        <lane id=":10259486703_3_0" index="0" allow="pedestrian bicycle" speed="2.89" length="2.92" width="2.00" shape="1738.73,1408.49 1738.57,1409.37 1738.21,1409.80 1737.65,1409.77 1736.89,1409.28"/>
    </edge>
    <edge id=":10259486704_0" function="internal">
        <lane id=":10259486704_0_0" index="0" disallow="tram rail_urban rail rail_electric rail_fast ship container cable_car subway aircraft wheelchair scooter drone" speed="27.78" length="5.01" shape="1774.15,1388.48 1776.64,1392.84"/>
        <lane id=":10259486704_0_1" index="1" disallow="tram rail_urban rail rail_electric rail_fast ship container cable_car subway aircraft wheelchair scooter drone" speed="27.78" length="5.01" shape="1771.37,1390.07 1773.85,1394.42"/>
        <lane id=":10259486704_0_2" index="2" disallow="tram rail_urban rail rail_electric rail_fast ship container cable_car subway aircraft wheelchair scooter drone" speed="27.78" length="5.01" shape="1768.59,1391.65 1771.07,1396.00"/>
    </edge>
    <edge id=":10259486705_0" function="internal">
        <lane id=":10259486705_0_0" index="0" disallow="tram rail_urban rail rail_electric rail_fast ship container cable_car subway aircraft wheelchair scooter drone" speed="27.78" length="5.53" shape="1756.30,1404.48 1753.83,1399.53"/>
        <lane id=":10259486705_0_1" index="1" disallow="tram rail_urban rail rail_electric rail_fast ship container cable_car subway aircraft wheelchair scooter drone" speed="27.78" length="5.53" shape="1759.16,1403.05 1756.70,1398.10"/>
        <lane id=":10259486705_0_2" index="2" disallow="tram rail_urban rail rail_electric rail_fast ship container cable_car subway aircraft wheelchair scooter drone" speed="27.78" length="5.53" shape="1762.03,1401.63 1759.57,1396.68"/>
    </edge>
    <edge id=":10260853610_0" function="internal">
        <lane id=":10260853610_0_0" index="0" allow="pedestrian bicycle" speed="5.76" length="5.91" width="2.00" shape="1711.99,1132.33 1710.53,1131.95 1709.20,1132.11 1707.99,1132.82 1706.91,1134.08"/>
    </edge>
    <edge id=":10260853610_1" function="internal">
        <lane id=":10260853610_1_0" index="0" disallow="tram rail_urban rail rail_electric rail_fast ship container cable_car subway aircraft wheelchair scooter drone" speed="13.89" length="7.94" shape="1711.99,1132.33 1704.70,1129.19"/>
    </edge>
    <edge id=":10260853610_2" function="internal">
        <lane id=":10260853610_2_0" index="0" allow="pedestrian bicycle" speed="6.29" length="2.56" width="2.00" shape="1711.99,1132.33 1710.09,1131.05 1709.98,1130.81"/>
    </edge>
    <edge id=":10260853610_14" function="internal">
        <lane id=":10260853610_14_0" index="0" allow="pedestrian bicycle" speed="6.29" length="6.83" width="2.00" shape="1709.98,1130.81 1709.26,1129.31 1709.49,1127.11 1710.80,1124.45"/>
    </edge>
    <edge id=":10260853610_3" function="internal">
        <lane id=":10260853610_3_0" index="0" allow="pedestrian bicycle" speed="4.50" length="4.67" width="2.00" shape="1712.48,1125.53 1711.87,1126.81 1711.80,1127.88 1712.26,1128.74 1713.26,1129.39"/>
    </edge>
    <edge id=":10260853610_4" function="internal">
        <lane id=":10260853610_4_0" index="0" allow="pedestrian bicycle" speed="5.56" length="10.20" width="2.00" shape="1712.48,1125.53 1706.91,1134.08"/>
    </edge>
    <edge id=":10260853610_5" function="internal">
        <lane id=":10260853610_5_0" index="0" allow="pedestrian bicycle" speed="6.93" length="9.44" width="2.00" shape="1712.48,1125.53 1710.68,1127.82 1708.79,1129.19 1706.79,1129.65 1704.70,1129.19"/>
    </edge>
    <edge id=":10260853610_6" function="internal">
        <lane id=":10260853610_6_0" index="0" allow="pedestrian bicycle" speed="2.89" length="2.92" width="2.00" shape="1712.48,1125.53 1711.66,1125.89 1711.10,1125.83 1710.82,1125.35 1710.80,1124.45"/>
    </edge>
    <edge id=":10260853610_7" function="internal">
        <lane id=":10260853610_7_0" index="0" allow="pedestrian bicycle" speed="5.65" length="5.74" width="2.00" shape="1705.91,1126.22 1707.32,1126.59 1708.61,1126.42 1709.76,1125.70 1710.80,1124.45"/>
    </edge>
    <edge id=":10260853610_8" function="internal">
        <lane id=":10260853610_8_0" index="0" disallow="tram rail_urban rail rail_electric rail_fast ship container cable_car subway aircraft wheelchair scooter drone" speed="13.89" length="8.01" shape="1705.91,1126.22 1713.26,1129.39"/>
    </edge>
    <edge id=":10260853610_9" function="internal">
        <lane id=":10260853610_9_0" index="0" allow="pedestrian bicycle" speed="6.24" length="2.52" width="2.00" shape="1705.91,1126.22 1707.79,1127.50 1707.90,1127.73"/>
    </edge>
    <edge id=":10260853610_15" function="internal">
        <lane id=":10260853610_15_0" index="0" allow="pedestrian bicycle" speed="6.24" length="6.86" width="2.00" shape="1707.90,1127.73 1708.58,1129.23 1708.29,1131.42 1706.91,1134.08"/>
    </edge>
    <edge id=":10260853610_10" function="internal">
        <lane id=":10260853610_10_0" index="0" allow="pedestrian bicycle" speed="4.41" length="4.53" width="2.00" shape="1705.25,1132.97 1705.90,1131.70 1706.03,1130.65 1705.63,1129.81 1704.70,1129.19"/>
    </edge>
    <edge id=":10260853610_11" function="internal">
        <lane id=":10260853610_11_0" index="0" allow="pedestrian bicycle" speed="5.56" length="10.16" width="2.00" shape="1705.25,1132.97 1710.80,1124.45"/>
    </edge>
    <edge id=":10260853610_12" function="internal">
        <lane id=":10260853610_12_0" index="0" allow="pedestrian bicycle" speed="7.04" length="9.61" width="2.00" shape="1705.25,1132.97 1707.11,1130.70 1709.07,1129.34 1711.12,1128.91 1713.26,1129.39"/>
    </edge>
    <edge id=":10260853610_13" function="internal">
        <lane id=":10260853610_13_0" index="0" allow="pedestrian bicycle" speed="2.89" length="2.92" width="2.00" shape="1705.25,1132.97 1706.08,1132.62 1706.63,1132.69 1706.91,1133.18 1706.91,1134.08"/>
    </edge>
    <edge id=":10296445839_0" function="internal">
        <lane id=":10296445839_0_0" index="0" allow="pedestrian delivery bicycle" speed="3.65" length="4.67" shape="2351.68,1613.58 2352.09,1612.20 2352.74,1611.58 2353.62,1611.73 2354.74,1612.64"/>
    </edge>
    <edge id=":10296445841_0" function="internal">
        <lane id=":10296445841_0_0" index="0" disallow="tram rail_urban rail rail_electric rail_fast ship container cable_car subway aircraft wheelchair scooter drone" speed="22.22" length="0.31" shape="2301.78,1073.90 2301.48,1073.86"/>
    </edge>
    <edge id=":10296445841_1" function="internal">
        <lane id=":10296445841_1_0" index="0" disallow="tram rail_urban rail rail_electric rail_fast ship container cable_car subway aircraft wheelchair scooter drone" speed="22.22" length="0.29" shape="2301.87,1070.68 2302.16,1070.72"/>
    </edge>
    <edge id=":10296445844_0" function="internal">
        <lane id=":10296445844_0_0" index="0" disallow="tram rail_urban rail rail_electric rail_fast ship container cable_car subway aircraft wheelchair scooter drone" speed="22.22" length="0.31" shape="2260.86,1068.31 2260.55,1068.26"/>
    </edge>
    <edge id=":10296445844_1" function="internal">
        <lane id=":10296445844_1_0" index="0" disallow="tram rail_urban rail rail_electric rail_fast ship container cable_car subway aircraft wheelchair scooter drone" speed="22.22" length="0.23" shape="2261.10,1065.11 2261.33,1065.15"/>
    </edge>
    <edge id=":10296445846_0" function="internal">
        <lane id=":10296445846_0_0" index="0" disallow="tram rail_urban rail rail_electric rail_fast ship container cable_car subway aircraft wheelchair scooter drone" speed="27.78" length="1.19" shape="2278.24,1054.32 2278.22,1053.93 2278.21,1053.66 2278.22,1053.39 2278.23,1052.99"/>
        <lane id=":10296445846_0_1" index="1" disallow="tram rail_urban rail rail_electric rail_fast ship container cable_car subway aircraft wheelchair scooter drone" speed="27.78" length="1.19" shape="2281.44,1054.15 2281.42,1053.84 2281.41,1053.63 2281.42,1053.42 2281.43,1053.11"/>
    </edge>
    <edge id=":10296445846_2" function="internal">
        <lane id=":10296445846_2_0" index="0" disallow="tram rail_urban rail rail_electric rail_fast ship container cable_car subway aircraft wheelchair scooter drone" speed="27.78" length="0.44" shape="2291.02,1053.49 2291.02,1053.53 2291.02,1053.56 2291.02,1053.59 2291.02,1053.63"/>
        <lane id=":10296445846_2_1" index="1" disallow="tram rail_urban rail rail_electric rail_fast ship container cable_car subway aircraft wheelchair scooter drone" speed="27.78" length="0.44" shape="2287.82,1053.36 2287.82,1053.49 2287.82,1053.58 2287.82,1053.67 2287.83,1053.81"/>
        <lane id=":10296445846_2_2" index="2" disallow="tram rail_urban rail rail_electric rail_fast ship container cable_car subway aircraft wheelchair scooter drone" speed="27.78" length="0.44" shape="2284.63,1053.24 2284.62,1053.46 2284.62,1053.61 2284.62,1053.76 2284.63,1053.98"/>
    </edge>
    <edge id=":10296445847_0" function="internal">
        <lane id=":10296445847_0_0" index="0" disallow="tram rail_urban rail rail_electric rail_fast ship container cable_car subway aircraft wheelchair scooter drone" speed="27.78" length="0.24" shape="2285.99,1082.89 2285.98,1083.12"/>
        <lane id=":10296445847_0_1" index="1" disallow="tram rail_urban rail rail_electric rail_fast ship container cable_car subway aircraft wheelchair scooter drone" speed="27.78" length="0.24" shape="2282.80,1082.70 2282.78,1082.96"/>
    </edge>
    <edge id=":10296445847_2" function="internal">
        <lane id=":10296445847_2_0" index="0" disallow="tram rail_urban rail rail_electric rail_fast ship container cable_car subway aircraft wheelchair scooter drone" speed="27.78" length="0.33" shape="2273.19,1082.48 2273.21,1082.12"/>
        <lane id=":10296445847_2_1" index="1" disallow="tram rail_urban rail rail_electric rail_fast ship container cable_car subway aircraft wheelchair scooter drone" speed="27.78" length="0.33" shape="2276.39,1082.64 2276.41,1082.31"/>
        <lane id=":10296445847_2_2" index="2" disallow="tram rail_urban rail rail_electric rail_fast ship container cable_car subway aircraft wheelchair scooter drone" speed="27.78" length="0.33" shape="2279.59,1082.80 2279.60,1082.51"/>
    </edge>
    <edge id=":10302695346_0" function="internal">
        <lane id=":10302695346_0_0" index="0" disallow="tram rail_urban rail rail_electric rail_fast ship container cable_car subway aircraft wheelchair scooter drone" speed="27.78" length="0.28" shape="2404.79,2275.32 2404.65,2275.11"/>
        <lane id=":10302695346_0_1" index="1" disallow="tram rail_urban rail rail_electric rail_fast ship container cable_car subway aircraft wheelchair scooter drone" speed="27.78" length="0.28" shape="2407.47,2273.56 2407.29,2273.30"/>
    </edge>
    <edge id=":10304025891_0" function="internal">
        <lane id=":10304025891_0_0" index="0" disallow="tram rail_urban rail rail_electric rail_fast ship container cable_car subway aircraft wheelchair scooter drone" speed="27.78" length="0.28" shape="2363.68,2321.16 2363.52,2320.92"/>
    </edge>
    <edge id=":10304025891_1" function="internal">
        <lane id=":10304025891_1_0" index="0" disallow="tram rail_urban rail rail_electric rail_fast ship container cable_car subway aircraft wheelchair scooter drone" speed="27.78" length="0.31" shape="2366.16,2319.11 2366.33,2319.37"/>
    </edge>
    <edge id=":10314228739_0" function="internal">
        <lane id=":10314228739_0_0" index="0" disallow="tram rail_urban rail rail_electric rail_fast ship container cable_car subway aircraft wheelchair scooter drone" speed="22.22" length="1.08" shape="1932.79,977.90 1933.79,978.29"/>