<?xml version="1.0" encoding="UTF-8"?>

<!-- generated on 2025-06-04 11:51:51 by Eclipse SUMO netedit Version 1.22.0
<neteditConfiguration xmlns:xsi="http://www.w3.org/2001/XMLSchema-instance" xsi:noNamespaceSchemaLocation="http://sumo.dlr.de/xsd/neteditConfiguration.xsd">

    <input>
        <sumo-net-file value="vung02.net.xml"/>
    </input>

    <output>
        <output-file value="vung02.net.xml"/>
    </output>

    <processing>
        <geometry.min-radius.fix.railways value="false"/>
        <geometry.max-grade.fix value="false"/>
        <offset.disable-normalization value="true"/>
        <lefthand value="0"/>
    </processing>

    <junctions>
        <no-turnarounds value="true"/>
        <junctions.corner-detail value="5"/>
        <junctions.limit-turn-speed value="5.50"/>
        <rectangular-lane-cut value="0"/>
    </junctions>

    <pedestrian>
        <walkingareas value="0"/>
    </pedestrian>

</neteditConfiguration>
-->

<net version="1.20" junctionCornerDetail="5" limitTurnSpeed="5.50" xmlns:xsi="http://www.w3.org/2001/XMLSchema-instance" xsi:noNamespaceSchemaLocation="http://sumo.dlr.de/xsd/net_file.xsd">

    <location netOffset="-581227.04,-2323880.85" convBoundary="1211.29,0.00,2675.14,2328.80" origBoundary="105.781737,20.960406,105.813160,21.045988" projParameter="+proj=utm +zone=48 +ellps=WGS84 +datum=WGS84 +units=m +no_defs"/>

    <type id="highway.cycleway" priority="1" numLanes="1" speed="5.56" allow="bicycle" oneway="0" width="2.00"/>
    <type id="highway.footway" priority="1" numLanes="1" speed="2.78" allow="pedestrian" oneway="1" width="2.00"/>
    <type id="highway.primary" priority="12" numLanes="2" speed="27.78" disallow="tram rail_urban rail rail_electric rail_fast ship container cable_car subway aircraft wheelchair scooter drone" oneway="0"/>
    <type id="highway.primary_link" priority="7" numLanes="1" speed="22.22" disallow="tram rail_urban rail rail_electric rail_fast ship container cable_car subway aircraft wheelchair scooter drone" oneway="0"/>
    <type id="highway.residential" priority="3" numLanes="1" speed="13.89" disallow="tram rail_urban rail rail_electric rail_fast ship container cable_car subway aircraft wheelchair scooter drone" oneway="0"/>
    <type id="highway.secondary" priority="11" numLanes="1" speed="27.78" disallow="tram rail_urban rail rail_electric rail_fast ship container cable_car subway aircraft wheelchair scooter drone" oneway="0"/>
    <type id="highway.secondary_link" priority="6" numLanes="1" speed="22.22" disallow="tram rail_urban rail rail_electric rail_fast ship container cable_car subway aircraft wheelchair scooter drone" oneway="0"/>
    <type id="highway.service" priority="1" numLanes="1" speed="5.56" allow="pedestrian delivery bicycle" oneway="0"/>
    <type id="highway.tertiary" priority="10" numLanes="1" speed="22.22" disallow="tram rail_urban rail rail_electric rail_fast ship container cable_car subway aircraft wheelchair scooter drone" oneway="0"/>
    <type id="highway.trunk" priority="13" numLanes="2" speed="27.78" disallow="pedestrian bicycle tram rail_urban rail rail_electric rail_fast ship container cable_car subway aircraft wheelchair scooter drone" oneway="0"/>
    <type id="highway.trunk_link" priority="8" numLanes="1" speed="22.22" disallow="pedestrian bicycle tram rail_urban rail rail_electric rail_fast ship container cable_car subway aircraft wheelchair scooter drone" oneway="0"/>

    <edge id=":10180120740_0" function="internal">
        <lane id=":10180120740_0_0" index="0" allow="pedestrian bicycle" speed="5.56" length="1.73" width="2.00" shape="1844.14,1547.92 1843.65,1547.77 1843.33,1547.62 1843.06,1547.40 1842.71,1547.02"/>
    </edge>
    <edge id=":10180120740_1" function="internal">
        <lane id=":10180120740_1_0" index="0" allow="pedestrian bicycle" speed="2.89" length="2.92" width="2.00" shape="1844.14,1547.92 1843.56,1547.24 1843.45,1546.69 1843.83,1546.27 1844.69,1546.00"/>
    </edge>
    <edge id=":10180120740_2" function="internal">
        <lane id=":10180120740_2_0" index="0" allow="pedestrian bicycle" speed="5.56" length="0.58" width="2.00" shape="1844.21,1545.70 1844.33,1545.82 1844.42,1545.90 1844.53,1545.95 1844.69,1546.00"/>
    </edge>
    <edge id=":10180120740_3" function="internal">
        <lane id=":10180120740_3_0" index="0" allow="pedestrian bicycle" speed="2.89" length="2.92" width="2.00" shape="1844.21,1545.70 1844.33,1546.59 1844.12,1547.11 1843.58,1547.25 1842.71,1547.02"/>
    </edge>
    <edge id=":10180120741_0" function="internal">
        <lane id=":10180120741_0_0" index="0" allow="pedestrian bicycle" speed="8.09" length="6.87" width="2.00" shape="1857.33,1552.80 1856.75,1552.16 1855.53,1551.46 1853.68,1550.73 1851.20,1549.95"/>
    </edge>
    <edge id=":10180120741_1" function="internal">
        <lane id=":10180120741_1_0" index="0" disallow="tram rail_urban rail rail_electric rail_fast ship container cable_car subway aircraft wheelchair scooter drone" speed="27.78" length="1.37" shape="1857.33,1552.80 1857.20,1552.42 1857.13,1552.15 1857.07,1551.87 1856.93,1551.49"/>
        <lane id=":10180120741_1_1" index="1" disallow="tram rail_urban rail rail_electric rail_fast ship container cable_car subway aircraft wheelchair scooter drone" speed="27.78" length="1.37" shape="1860.55,1551.42 1860.37,1551.06 1860.21,1550.82 1860.06,1550.59 1859.87,1550.23"/>
    </edge>
    <edge id=":10180120741_3" function="internal">
        <lane id=":10180120741_3_0" index="0" allow="pedestrian bicycle" speed="4.47" length="6.24" width="2.00" shape="1851.75,1548.03 1856.93,1551.49"/>
    </edge>
    <edge id=":10180120741_4" function="internal">
        <lane id=":10180120741_4_0" index="0" allow="pedestrian bicycle" speed="2.89" length="2.92" width="2.00" shape="1851.75,1548.03 1852.33,1548.71 1852.44,1549.26 1852.06,1549.67 1851.20,1549.95"/>
    </edge>
    <edge id=":10180120742_0" function="internal">
        <lane id=":10180120742_0_0" index="0" disallow="tram rail_urban rail rail_electric rail_fast ship container cable_car subway aircraft wheelchair scooter drone" speed="27.78" length="4.44" width="3.50" shape="1742.10,1152.09 1741.38,1153.01 1740.93,1153.66 1740.51,1154.34 1739.94,1155.35"/>
        <lane id=":10180120742_0_1" index="1" disallow="tram rail_urban rail rail_electric rail_fast ship container cable_car subway aircraft wheelchair scooter drone" speed="27.78" length="4.44" width="3.50" shape="1739.36,1149.91 1738.55,1150.95 1738.03,1151.69 1737.56,1152.46 1736.90,1153.60"/>
        <lane id=":10180120742_0_2" index="2" disallow="tram rail_urban rail rail_electric rail_fast ship container cable_car subway aircraft wheelchair scooter drone" speed="27.78" length="4.44" width="3.50" shape="1736.62,1147.73 1735.72,1148.89 1735.13,1149.71 1734.61,1150.57 1733.87,1151.85"/>
    </edge>
    <edge id=":10180120743_0" function="internal">
        <lane id=":10180120743_0_0" index="0" disallow="tram rail_urban rail rail_electric rail_fast ship container cable_car subway aircraft wheelchair scooter drone" speed="27.78" length="5.48" width="3.50" shape="1735.50,1128.16 1736.58,1126.82 1737.33,1125.91 1738.13,1125.04 1739.31,1123.80"/>
        <lane id=":10180120743_0_1" index="1" disallow="tram rail_urban rail rail_electric rail_fast ship container cable_car subway aircraft wheelchair scooter drone" speed="27.78" length="5.48" width="3.50" shape="1738.24,1130.34 1739.25,1129.07 1739.97,1128.22 1740.72,1127.40 1741.84,1126.22"/>
        <lane id=":10180120743_0_2" index="2" disallow="tram rail_urban rail rail_electric rail_fast ship container cable_car subway aircraft wheelchair scooter drone" speed="27.78" length="5.48" width="3.50" shape="1740.97,1132.52 1741.93,1131.33 1742.60,1130.52 1743.31,1129.75 1744.37,1128.64"/>
    </edge>
    <edge id=":10180120744_0" function="internal">
        <lane id=":10180120744_0_0" index="0" disallow="tram rail_urban rail rail_electric rail_fast ship container cable_car subway aircraft wheelchair scooter drone" speed="27.78" length="4.33" width="3.50" shape="1753.72,1137.89 1752.90,1138.70 1752.35,1139.27 1751.84,1139.87 1751.12,1140.77"/>
        <lane id=":10180120744_0_1" index="1" disallow="tram rail_urban rail rail_electric rail_fast ship container cable_car subway aircraft wheelchair scooter drone" speed="27.78" length="4.33" width="3.50" shape="1751.28,1135.38 1750.36,1136.28 1749.75,1136.92 1749.18,1137.59 1748.38,1138.60"/>
        <lane id=":10180120744_0_2" index="2" disallow="tram rail_urban rail rail_electric rail_fast ship container cable_car subway aircraft wheelchair scooter drone" speed="27.78" length="4.33" width="3.50" shape="1748.84,1132.87 1747.83,1133.87 1747.15,1134.57 1746.53,1135.31 1745.64,1136.42"/>
    </edge>
    <edge id=":10180120746_0" function="internal">
        <lane id=":10180120746_0_0" index="0" disallow="tram rail_urban rail rail_electric rail_fast ship container cable_car subway aircraft wheelchair scooter drone" speed="27.78" length="3.41" width="3.50" shape="1723.27,1145.69 1725.02,1142.71"/>
        <lane id=":10180120746_0_1" index="1" disallow="tram rail_urban rail rail_electric rail_fast ship container cable_car subway aircraft wheelchair scooter drone" speed="27.78" length="3.41" width="3.50" shape="1726.29,1147.45 1728.02,1144.52"/>
        <lane id=":10180120746_0_2" index="2" disallow="tram rail_urban rail rail_electric rail_fast ship container cable_car subway aircraft wheelchair scooter drone" speed="27.78" length="3.41" width="3.50" shape="1729.31,1149.22 1731.02,1146.32"/>
    </edge>
    <edge id=":10180120747_0" function="internal">
        <lane id=":10180120747_0_0" index="0" allow="pedestrian bicycle" speed="2.89" length="2.92" width="2.00" shape="2397.30,196.76 2398.20,196.71 2398.70,196.96 2398.80,197.51 2398.50,198.36"/>
    </edge>
    <edge id=":10180120750_0" function="internal">
        <lane id=":10180120750_0_0" index="0" disallow="tram rail_urban rail rail_electric rail_fast ship container cable_car subway aircraft wheelchair scooter drone" speed="27.78" length="0.41" width="3.50" shape="2418.54,219.32 2418.04,219.78"/>
        <lane id=":10180120750_0_1" index="1" disallow="tram rail_urban rail rail_electric rail_fast ship container cable_car subway aircraft wheelchair scooter drone" speed="27.78" length="0.41" width="3.50" shape="2416.07,216.84 2415.76,217.12"/>
        <lane id=":10180120750_0_2" index="2" disallow="tram rail_urban rail rail_electric rail_fast ship container cable_car subway aircraft wheelchair scooter drone" speed="27.78" length="0.41" width="3.50" shape="2413.59,214.37 2413.49,214.46"/>
    </edge>
    <edge id=":10259486689_0" function="internal">
        <lane id=":10259486689_0_0" index="0" disallow="tram rail_urban rail rail_electric rail_fast ship container cable_car subway aircraft wheelchair scooter drone" speed="27.78" length="0.30" width="4.00" shape="2145.43,1786.13 2145.22,1786.24"/>
        <lane id=":10259486689_0_1" index="1" disallow="tram rail_urban rail rail_electric rail_fast ship container cable_car subway aircraft wheelchair scooter drone" speed="27.78" length="0.30" width="4.00" shape="2143.73,1782.52 2143.48,1782.64"/>
        <lane id=":10259486689_0_2" index="2" disallow="tram rail_urban rail rail_electric rail_fast ship container cable_car subway aircraft wheelchair scooter drone" speed="27.78" length="0.30" width="4.00" shape="2142.02,1778.90 2141.74,1779.03"/>
        <lane id=":10259486689_0_3" index="3" disallow="tram rail_urban rail rail_electric rail_fast ship container cable_car subway aircraft wheelchair scooter drone" speed="27.78" length="0.30" width="4.00" shape="2140.31,1775.28 2140.00,1775.43"/>
    </edge>
    <edge id=":10259486690_0" function="internal">
        <lane id=":10259486690_0_0" index="0" disallow="tram rail_urban rail rail_electric rail_fast ship container cable_car subway aircraft wheelchair scooter drone" speed="27.78" length="0.48" shape="2070.14,1750.76 2070.57,1751.24"/>
        <lane id=":10259486690_0_1" index="1" disallow="tram rail_urban rail rail_electric rail_fast ship container cable_car subway aircraft wheelchair scooter drone" speed="27.78" length="0.48" shape="2067.80,1752.95 2068.16,1753.35"/>
        <lane id=":10259486690_0_2" index="2" disallow="tram rail_urban rail rail_electric rail_fast ship container cable_car subway aircraft wheelchair scooter drone" speed="27.78" length="0.48" shape="2065.47,1755.14 2065.75,1755.46"/>
        <lane id=":10259486690_0_3" index="3" disallow="tram rail_urban rail rail_electric rail_fast ship container cable_car subway aircraft wheelchair scooter drone" speed="27.78" length="0.48" shape="2063.13,1757.32 2063.34,1757.56"/>
    </edge>
    <edge id=":10259486691_0" function="internal">
        <lane id=":10259486691_0_0" index="0" disallow="tram rail_urban rail rail_electric rail_fast ship container cable_car subway aircraft wheelchair scooter drone" speed="27.78" length="0.30" width="6.00" shape="2089.30,1842.32 2089.11,1842.09"/>
        <lane id=":10259486691_0_1" index="1" disallow="tram rail_urban rail rail_electric rail_fast ship container cable_car subway aircraft wheelchair scooter drone" speed="27.78" length="0.30" width="6.00" shape="2093.91,1838.49 2093.72,1838.25"/>
    </edge>
    <edge id=":10259486694_0" function="internal">
        <lane id=":10259486694_0_0" index="0" disallow="tram rail_urban rail rail_electric rail_fast ship container cable_car subway aircraft wheelchair scooter drone" speed="27.78" length="2.56" shape="2124.78,1823.87 2125.14,1824.48 2125.31,1824.94 2125.50,1825.39 2125.90,1825.96"/>
        <lane id=":10259486694_0_1" index="1" disallow="tram rail_urban rail rail_electric rail_fast ship container cable_car subway aircraft wheelchair scooter drone" speed="27.78" length="2.56" shape="2121.51,1826.17 2122.02,1826.79 2122.46,1827.14 2122.91,1827.48 2123.48,1828.05"/>
    </edge>
    <edge id=":10259486700_0" function="internal">
        <lane id=":10259486700_0_0" index="0" allow="pedestrian bicycle" speed="5.56" length="0.29" width="2.00" shape="1751.06,1435.50 1750.88,1435.27"/>
    </edge>
    <edge id=":10259486700_1" function="internal">
        <lane id=":10259486700_1_0" index="0" allow="pedestrian bicycle" speed="2.89" length="2.92" width="2.00" shape="1751.06,1435.50 1751.01,1434.60 1751.26,1434.10 1751.81,1434.00 1752.66,1434.30"/>
    </edge>
    <edge id=":10259486700_2" function="internal">
        <lane id=":10259486700_2_0" index="0" allow="pedestrian bicycle" speed="5.56" length="0.30" width="2.00" shape="1752.47,1434.05 1752.66,1434.30"/>
    </edge>
    <edge id=":10259486700_3" function="internal">
        <lane id=":10259486700_3_0" index="0" allow="pedestrian bicycle" speed="2.89" length="2.92" width="2.00" shape="1752.47,1434.05 1752.53,1434.95 1752.29,1435.46 1751.74,1435.56 1750.88,1435.27"/>
    </edge>
    <edge id=":10259486703_0" function="internal">
        <lane id=":10259486703_0_0" index="0" allow="pedestrian bicycle" speed="5.56" length="0.25" width="2.00" shape="1738.03,1411.92 1737.93,1411.69"/>
    </edge>
    <edge id=":10259486703_1" function="internal">
        <lane id=":10259486703_1_0" index="0" allow="pedestrian bicycle" speed="2.89" length="2.92" width="2.00" shape="1738.03,1411.92 1738.16,1411.02 1738.50,1410.58 1739.06,1410.59 1739.84,1411.05"/>
    </edge>
    <edge id=":10259486703_2" function="internal">
        <lane id=":10259486703_2_0" index="0" allow="pedestrian bicycle" speed="5.56" length="0.16" width="2.00" shape="1739.77,1410.90 1739.84,1411.05"/>
    </edge>
    <edge id=":10259486703_3" function="internal">
        <lane id=":10259486703_3_0" index="0" allow="pedestrian bicycle" speed="2.89" length="2.92" width="2.00" shape="1739.77,1410.90 1739.60,1411.79 1739.24,1412.21 1738.69,1412.18 1737.93,1411.69"/>
    </edge>
    <edge id=":10302695346_0" function="internal">
        <lane id=":10302695346_0_0" index="0" disallow="tram rail_urban rail rail_electric rail_fast ship container cable_car subway aircraft wheelchair scooter drone" speed="27.78" length="0.28" width="3.50" shape="2404.66,2275.40 2404.53,2275.19"/>
        <lane id=":10302695346_0_1" index="1" disallow="tram rail_urban rail rail_electric rail_fast ship container cable_car subway aircraft wheelchair scooter drone" speed="27.78" length="0.28" width="3.50" shape="2407.59,2273.48 2407.42,2273.22"/>
    </edge>
    <edge id=":10304025891_0" function="internal">
        <lane id=":10304025891_0_0" index="0" disallow="tram rail_urban rail rail_electric rail_fast ship container cable_car subway aircraft wheelchair scooter drone" speed="27.78" length="0.28" shape="2363.68,2321.16 2363.52,2320.92"/>
    </edge>
    <edge id=":10304025891_1" function="internal">
        <lane id=":10304025891_1_0" index="0" disallow="tram rail_urban rail rail_electric rail_fast ship container cable_car subway aircraft wheelchair scooter drone" speed="27.78" length="0.31" shape="2366.16,2319.11 2366.33,2319.37"/>
    </edge>
    <edge id=":10314228739_0" function="internal">
        <lane id=":10314228739_0_0" index="0" disallow="tram rail_urban rail rail_electric rail_fast ship container cable_car subway aircraft wheelchair scooter drone" speed="22.22" length="1.32" shape="1932.79,977.90 1934.02,978.38"/>
    </edge>
    <edge id=":10314228739_1" function="internal">
        <lane id=":10314228739_1_0" index="0" disallow="tram rail_urban rail rail_electric rail_fast ship container cable_car subway aircraft wheelchair scooter drone" speed="22.22" length="1.32" shape="1935.20,975.41 1933.97,974.92"/>
    </edge>
    <edge id=":10542291197_0" function="internal">
        <lane id=":10542291197_0_0" index="0" allow="pedestrian delivery bicycle" speed="5.56" length="0.30" shape="1715.23,345.98 1714.94,346.08"/>
    </edge>
    <edge id=":10542291197_1" function="internal">
        <lane id=":10542291197_1_0" index="0" allow="pedestrian delivery bicycle" speed="3.65" length="2.34" shape="1715.23,345.98 1713.84,345.60 1713.21,344.96"/>
    </edge>
    <edge id=":10542291197_4" function="internal">
        <lane id=":10542291197_4_0" index="0" allow="pedestrian delivery bicycle" speed="3.65" length="2.34" shape="1713.21,344.96 1713.34,344.08 1714.23,342.94"/>
    </edge>
    <edge id=":10542291197_2" function="internal">
        <lane id=":10542291197_2_0" index="0" allow="pedestrian delivery bicycle" speed="5.56" length="0.30" shape="1713.95,343.04 1714.23,342.94"/>
    </edge>
    <edge id=":10542291197_3" function="internal">
        <lane id=":10542291197_3_0" index="0" allow="pedestrian delivery bicycle" speed="3.65" length="2.34" shape="1713.95,343.04 1715.34,343.42 1715.97,344.06"/>
    </edge>
    <edge id=":10542291197_5" function="internal">
        <lane id=":10542291197_5_0" index="0" allow="pedestrian delivery bicycle" speed="3.65" length="2.34" shape="1715.97,344.06 1715.84,344.94 1714.94,346.08"/>
    </edge>
    <edge id=":10542328772_0" function="internal">
        <lane id=":10542328772_0_0" index="0" disallow="tram rail_urban rail rail_electric rail_fast ship container cable_car subway aircraft wheelchair scooter drone" speed="22.22" length="0.65" shape="1756.76,456.08 1756.48,455.37"/>
        <lane id=":10542328772_0_1" index="1" disallow="tram rail_urban rail rail_electric rail_fast ship container cable_car subway aircraft wheelchair scooter drone" speed="22.22" length="0.65" shape="1759.69,454.80 1759.49,454.29"/>
    </edge>
    <edge id=":10542328772_2" function="internal">
        <lane id=":10542328772_2_0" index="0" disallow="tram rail_urban rail rail_electric rail_fast ship container cable_car subway aircraft wheelchair scooter drone" speed="22.22" length="0.22" shape="1765.51,452.13 1765.56,452.24"/>
        <lane id=":10542328772_2_1" index="1" disallow="tram rail_urban rail rail_electric rail_fast ship container cable_car subway aircraft wheelchair scooter drone" speed="22.22" length="0.22" shape="1762.50,453.21 1762.62,453.52"/>
    </edge>
    <edge id=":10542328776_0" function="internal">
        <lane id=":10542328776_0_0" index="0" disallow="tram rail_urban rail rail_electric rail_fast ship container cable_car subway aircraft wheelchair scooter drone" speed="13.89" length="8.45" shape="2018.30,705.73 2013.82,712.89"/>
    </edge>
    <edge id=":10542328776_1" function="internal">
        <lane id=":10542328776_1_0" index="0" disallow="tram rail_urban rail rail_electric rail_fast ship container cable_car subway aircraft wheelchair scooter drone" speed="5.87" length="3.08" shape="2018.30,705.73 2016.38,707.98 2016.26,708.00"/>
    </edge>
    <edge id=":10542328776_2" function="internal">
        <lane id=":10542328776_2_0" index="0" disallow="tram rail_urban rail rail_electric rail_fast ship container cable_car subway aircraft wheelchair scooter drone" speed="3.65" length="1.44" shape="2018.30,705.73 2016.99,706.33"/>
    </edge>
    <edge id=":10542328776_6" function="internal">
        <lane id=":10542328776_6_0" index="0" disallow="tram rail_urban rail rail_electric rail_fast ship container cable_car subway aircraft wheelchair scooter drone" speed="5.87" length="7.87" shape="2016.26,708.00 2014.57,708.32 2012.89,706.73 2011.33,703.23"/>
    </edge>
    <edge id=":10542328776_7" function="internal">
        <lane id=":10542328776_7_0" index="0" disallow="tram rail_urban rail rail_electric rail_fast ship container cable_car subway aircraft wheelchair scooter drone" speed="3.65" length="3.23" shape="2016.99,706.33 2016.10,706.25 2015.63,705.49 2015.58,704.05"/>
    </edge>
    <edge id=":10542328776_3" function="internal">
        <lane id=":10542328776_3_0" index="0" disallow="tram rail_urban rail rail_electric rail_fast ship container cable_car subway aircraft wheelchair scooter drone" speed="8.60" length="8.16" shape="2011.15,711.13 2011.87,709.56 2012.13,707.73 2011.95,705.62 2011.33,703.23"/>
    </edge>
    <edge id=":10542328776_4" function="internal">
        <lane id=":10542328776_4_0" index="0" disallow="tram rail_urban rail rail_electric rail_fast ship container cable_car subway aircraft wheelchair scooter drone" speed="13.89" length="8.35" shape="2011.15,711.13 2015.58,704.05"/>
    </edge>
    <edge id=":10542328776_5" function="internal">
        <lane id=":10542328776_5_0" index="0" disallow="tram rail_urban rail rail_electric rail_fast ship container cable_car subway aircraft wheelchair scooter drone" speed="3.65" length="1.44" shape="2011.15,711.13 2012.48,710.56"/>
    </edge>
    <edge id=":10542328776_8" function="internal">
        <lane id=":10542328776_8_0" index="0" disallow="tram rail_urban rail rail_electric rail_fast ship container cable_car subway aircraft wheelchair scooter drone" speed="3.65" length="3.23" shape="2012.48,710.56 2013.37,710.67 2013.82,711.44 2013.82,712.89"/>
    </edge>
    <edge id=":10542328791_0" function="internal">
        <lane id=":10542328791_0_0" index="0" disallow="tram rail_urban rail rail_electric rail_fast ship container cable_car subway aircraft wheelchair scooter drone" speed="13.89" length="0.92" shape="1997.32,682.52 1996.81,683.28"/>
    </edge>
    <edge id=":10542328793_0" function="internal">
        <lane id=":10542328793_0_0" index="0" allow="pedestrian bicycle" speed="2.90" length="2.95" width="2.00" shape="2076.07,703.33 2075.26,703.75 2074.70,703.73 2074.38,703.26 2074.30,702.36"/>
    </edge>
    <edge id=":10542328801_0" function="internal">
        <lane id=":10542328801_0_0" index="0" disallow="tram rail_urban rail rail_electric rail_fast ship container cable_car subway aircraft wheelchair scooter drone" speed="22.22" length="0.30" shape="1887.96,610.17 1887.71,610.02"/>
        <lane id=":10542328801_0_1" index="1" disallow="bus tram rail_urban rail rail_electric rail_fast ship container cable_car subway aircraft wheelchair scooter drone" speed="22.22" length="0.30" shape="1889.65,607.46 1889.40,607.30"/>
    </edge>
    <edge id=":10542328801_2" function="internal">
        <lane id=":10542328801_2_0" index="0" disallow="tram rail_urban rail rail_electric rail_fast ship container cable_car subway aircraft wheelchair scooter drone" speed="22.22" length="0.30" shape="1892.78,601.87 1893.04,602.03"/>
        <lane id=":10542328801_2_1" index="1" disallow="bus tram rail_urban rail rail_electric rail_fast ship container cable_car subway aircraft wheelchair scooter drone" speed="22.22" length="0.30" shape="1891.09,604.58 1891.34,604.74"/>
    </edge>
    <edge id=":106080712_0" function="internal">
        <lane id=":106080712_0_0" index="0" disallow="tram rail_urban rail rail_electric rail_fast ship container cable_car subway aircraft wheelchair scooter drone" speed="8.38" length="10.40" width="3.50" shape="1933.84,978.31 1930.90,977.45 1928.30,977.33 1926.01,977.93 1924.05,979.26"/>
    </edge>
    <edge id=":106080712_1" function="internal">
        <lane id=":106080712_1_0" index="0" disallow="tram rail_urban rail rail_electric rail_fast ship container cable_car subway aircraft wheelchair scooter drone" speed="3.65" length="4.67" shape="1933.84,978.31 1933.01,977.13 1932.93,976.23 1933.60,975.64 1935.01,975.33"/>
    </edge>
    <edge id=":106080712_2" function="internal">
        <lane id=":106080712_2_0" index="0" disallow="tram rail_urban rail rail_electric rail_fast ship container cable_car subway aircraft wheelchair scooter drone" speed="5.63" length="8.39" shape="1934.67,968.79 1932.98,970.93 1932.47,972.73 1933.15,974.20 1935.01,975.33"/>
    </edge>
    <edge id=":106080712_3" function="internal">
        <lane id=":106080712_3_0" index="0" disallow="tram rail_urban rail rail_electric rail_fast ship container cable_car subway aircraft wheelchair scooter drone" speed="27.78" length="14.79" width="3.50" shape="1934.67,968.79 1924.05,979.26"/>
        <lane id=":106080712_3_1" index="1" disallow="tram rail_urban rail rail_electric rail_fast ship container cable_car subway aircraft wheelchair scooter drone" speed="27.78" length="14.79" width="3.50" shape="1932.19,966.32 1921.65,976.71"/>
        <lane id=":106080712_3_2" index="2" disallow="tram rail_urban rail rail_electric rail_fast ship container cable_car subway aircraft wheelchair scooter drone" speed="27.78" length="14.79" width="3.50" shape="1929.70,963.86 1919.25,974.16"/>
    </edge>
    <edge id=":10965136434_0" function="internal">
        <lane id=":10965136434_0_0" index="0" disallow="tram rail_urban rail rail_electric rail_fast ship container cable_car subway aircraft wheelchair scooter drone" speed="27.78" length="9.41" width="3.50" shape="2015.59,874.87 2010.37,882.71"/>
        <lane id=":10965136434_0_1" index="1" disallow="tram rail_urban rail rail_electric rail_fast ship container cable_car subway aircraft wheelchair scooter drone" speed="27.78" length="9.41" width="3.50" shape="2012.68,872.93 2007.46,880.76"/>
        <lane id=":10965136434_0_2" index="2" disallow="tram rail_urban rail rail_electric rail_fast ship container cable_car subway aircraft wheelchair scooter drone" speed="27.78" length="9.41" width="3.50" shape="2009.76,870.99 2004.55,878.82"/>
    </edge>
    <edge id=":10965136434_3" function="internal">
        <lane id=":10965136434_3_0" index="0" disallow="tram rail_urban rail rail_electric rail_fast ship container cable_car subway aircraft wheelchair scooter drone" speed="5.91" length="7.41" shape="2009.76,870.99 2008.09,873.22 2006.60,874.59 2005.28,875.12 2004.15,874.79"/>
    </edge>
    <edge id=":10965136434_4" function="internal">
        <lane id=":10965136434_4_0" index="0" disallow="tram rail_urban rail rail_electric rail_fast ship container cable_car subway aircraft wheelchair scooter drone" speed="6.85" length="9.81" width="3.50" shape="2006.04,872.20 2007.93,874.05 2008.79,876.09 2008.64,878.33 2007.46,880.76"/>
        <lane id=":10965136434_4_1" index="1" disallow="tram rail_urban rail rail_electric rail_fast ship container cable_car subway aircraft wheelchair scooter drone" speed="6.01" length="7.33" width="3.50" shape="2006.04,872.20 2006.68,873.15 2006.65,874.57 2005.94,876.46 2004.55,878.82"/>
    </edge>
    <edge id=":10965136434_6" function="internal">
        <lane id=":10965136434_6_0" index="0" disallow="tram rail_urban rail rail_electric rail_fast ship container cable_car subway aircraft wheelchair scooter drone" speed="3.65" length="4.67" shape="2006.04,872.20 2006.54,873.55 2006.39,874.44 2005.60,874.85 2004.15,874.79"/>
    </edge>
    <edge id=":10997686349_0" function="internal">
        <lane id=":10997686349_0_0" index="0" disallow="tram rail_urban rail rail_electric rail_fast ship container cable_car subway aircraft wheelchair scooter drone" speed="27.78" length="3.17" width="4.00" shape="2296.67,1362.90 2296.10,1362.15 2295.48,1361.81 2294.86,1361.46 2294.30,1360.71"/>
        <lane id=":10997686349_0_1" index="1" disallow="tram rail_urban rail rail_electric rail_fast ship container cable_car subway aircraft wheelchair scooter drone" speed="27.78" length="3.17" width="4.00" shape="2299.56,1361.53 2299.12,1360.75 2298.73,1360.26 2298.35,1359.77 2297.91,1358.99"/>
    </edge>
    <edge id=":10997686349_2" function="internal">
        <lane id=":10997686349_2_0" index="0" disallow="tram rail_urban rail rail_electric rail_fast ship container cable_car subway aircraft wheelchair scooter drone" speed="3.65" length="1.44" shape="2299.56,1361.53 2299.77,1360.10"/>
    </edge>
    <edge id=":10997686349_6" function="internal">
        <lane id=":10997686349_6_0" index="0" disallow="tram rail_urban rail rail_electric rail_fast ship container cable_car subway aircraft wheelchair scooter drone" speed="3.65" length="3.23" shape="2299.77,1360.10 2300.32,1359.40 2301.21,1359.42 2302.45,1360.16"/>
    </edge>
    <edge id=":10997686349_3" function="internal">