<?xml version="1.0" encoding="UTF-8"?>

<!-- generated on 2025-06-10 13:56:11 by Eclipse SUMO netedit Version 1.22.0
<neteditConfiguration xmlns:xsi="http://www.w3.org/2001/XMLSchema-instance" xsi:noNamespaceSchemaLocation="http://sumo.dlr.de/xsd/neteditConfiguration.xsd">

    <input>
        <sumo-net-file value=".\nghia_region_2.net.xml"/>
    </input>

    <output>
        <output-file value=".\nghia_region_2.net.xml"/>
    </output>

    <processing>
        <geometry.min-radius.fix.railways value="false"/>
        <geometry.max-grade.fix value="false"/>
        <offset.disable-normalization value="true"/>
        <lefthand value="0"/>
    </processing>

    <junctions>
        <no-turnarounds value="true"/>
        <junctions.corner-detail value="5"/>
        <junctions.limit-turn-speed value="5.50"/>
        <rectangular-lane-cut value="0"/>
    </junctions>

    <pedestrian>
        <walkingareas value="0"/>
    </pedestrian>

</neteditConfiguration>
-->

<net version="1.20" junctionCornerDetail="5" limitTurnSpeed="5.50" xmlns:xsi="http://www.w3.org/2001/XMLSchema-instance" xsi:noNamespaceSchemaLocation="http://sumo.dlr.de/xsd/net_file.xsd">

    <location netOffset="-582139.01,-2323222.93" convBoundary="0.00,0.00,1673.48,1235.95" origBoundary="105.790362,21.007881,105.806513,21.019206" projParameter="+proj=utm +zone=48 +ellps=WGS84 +datum=WGS84 +units=m +no_defs"/>

    <type id="highway.primary" priority="12" numLanes="2" speed="27.78" disallow="tram rail_urban rail rail_electric rail_fast ship container cable_car subway aircraft wheelchair scooter drone" oneway="0"/>
    <type id="highway.primary_link" priority="7" numLanes="1" speed="22.22" disallow="tram rail_urban rail rail_electric rail_fast ship container cable_car subway aircraft wheelchair scooter drone" oneway="0"/>
    <type id="highway.residential" priority="3" numLanes="1" speed="13.89" disallow="tram rail_urban rail rail_electric rail_fast ship container cable_car subway aircraft wheelchair scooter drone" oneway="0"/>
    <type id="highway.secondary" priority="11" numLanes="1" speed="27.78" disallow="tram rail_urban rail rail_electric rail_fast ship container cable_car subway aircraft wheelchair scooter drone" oneway="0"/>
    <type id="highway.secondary_link" priority="6" numLanes="1" speed="22.22" disallow="tram rail_urban rail rail_electric rail_fast ship container cable_car subway aircraft wheelchair scooter drone" oneway="0"/>
    <type id="highway.tertiary" priority="10" numLanes="1" speed="22.22" disallow="tram rail_urban rail rail_electric rail_fast ship container cable_car subway aircraft wheelchair scooter drone" oneway="0"/>

    <edge id=":106078638_0" function="internal">
        <lane id=":106078638_0_0" index="0" disallow="tram rail_urban rail rail_electric rail_fast ship container cable_car subway aircraft wheelchair scooter drone" speed="16.30" length="16.79" shape="1270.80,633.93 1266.52,630.94 1262.58,629.75 1258.84,629.47 1255.14,629.24"/>
    </edge>
    <edge id=":106078638_1" function="internal">
        <lane id=":106078638_1_0" index="0" disallow="tram rail_urban rail rail_electric rail_fast ship container cable_car subway aircraft wheelchair scooter drone" speed="27.78" length="17.89" shape="1270.80,633.93 1258.07,621.03"/>
        <lane id=":106078638_1_1" index="1" disallow="tram rail_urban rail rail_electric rail_fast ship container cable_car subway aircraft wheelchair scooter drone" speed="27.78" length="17.89" shape="1272.97,631.58 1260.35,618.78"/>
        <lane id=":106078638_1_2" index="2" disallow="tram rail_urban rail rail_electric rail_fast ship container cable_car subway aircraft wheelchair scooter drone" speed="27.78" length="17.89" shape="1275.15,629.23 1262.64,616.54"/>
        <lane id=":106078638_1_3" index="3" disallow="tram rail_urban rail rail_electric rail_fast ship container cable_car subway aircraft wheelchair scooter drone" speed="27.78" length="17.89" shape="1277.32,626.88 1264.92,614.30"/>
    </edge>
    <edge id=":106078638_5" function="internal">
        <lane id=":106078638_5_0" index="0" disallow="tram rail_urban rail rail_electric rail_fast ship container cable_car subway aircraft wheelchair scooter drone" speed="5.46" length="10.23" shape="1255.56,626.07 1258.94,626.17 1260.48,625.37 1260.19,623.66 1258.07,621.03"/>
        <lane id=":106078638_5_1" index="1" disallow="tram rail_urban rail rail_electric rail_fast ship container cable_car subway aircraft wheelchair scooter drone" speed="6.59" length="15.74" shape="1255.56,626.07 1261.01,626.29 1263.63,625.15 1263.41,622.65 1260.35,618.78"/>
        <lane id=":106078638_5_2" index="2" disallow="tram rail_urban rail rail_electric rail_fast ship container cable_car subway aircraft wheelchair scooter drone" speed="7.56" length="21.27" shape="1255.56,626.07 1263.09,626.40 1266.78,624.93 1266.63,621.64 1262.64,616.54"/>
    </edge>
    <edge id=":106078638_8" function="internal">
        <lane id=":106078638_8_0" index="0" disallow="tram rail_urban rail rail_electric rail_fast ship container cable_car subway aircraft wheelchair scooter drone" speed="3.65" length="4.67" shape="1255.56,626.07 1256.65,627.02 1256.94,627.86 1256.44,628.60 1255.14,629.24"/>
    </edge>
    <edge id=":1613087500_0" function="internal">
        <lane id=":1613087500_0_0" index="0" disallow="tram rail_urban rail rail_electric rail_fast ship container cable_car subway aircraft wheelchair scooter drone" speed="3.65" length="4.67" shape="1486.54,88.17 1487.41,87.02 1488.23,86.66 1489.01,87.11 1489.74,88.35"/>
    </edge>
    <edge id=":1748294292_0" function="internal">
        <lane id=":1748294292_0_0" index="0" disallow="tram rail_urban rail rail_electric rail_fast ship container cable_car subway aircraft wheelchair scooter drone" speed="16.67" length="0.29" shape="228.62,1213.66 228.79,1213.37"/>
        <lane id=":1748294292_0_1" index="1" disallow="tram rail_urban rail rail_electric rail_fast ship container cable_car subway aircraft wheelchair scooter drone" speed="16.67" length="0.29" shape="231.43,1215.20 231.57,1214.94"/>
        <lane id=":1748294292_0_2" index="2" disallow="tram rail_urban rail rail_electric rail_fast ship container cable_car subway aircraft wheelchair scooter drone" speed="16.67" length="0.29" shape="234.23,1216.74 234.36,1216.52"/>
    </edge>
    <edge id=":1901865134_0" function="internal">
        <lane id=":1901865134_0_0" index="0" disallow="tram rail_urban rail rail_electric rail_fast ship container cable_car subway aircraft wheelchair scooter drone" speed="27.78" length="9.19" shape="1058.09,426.87 1051.52,420.67"/>
        <lane id=":1901865134_0_1" index="1" disallow="tram rail_urban rail rail_electric rail_fast ship container cable_car subway aircraft wheelchair scooter drone" speed="27.78" length="9.19" shape="1060.33,424.58 1053.68,418.30"/>
        <lane id=":1901865134_0_2" index="2" disallow="tram rail_urban rail rail_electric rail_fast ship container cable_car subway aircraft wheelchair scooter drone" speed="27.78" length="9.19" shape="1062.56,422.29 1055.84,415.94"/>
        <lane id=":1901865134_0_3" index="3" disallow="tram rail_urban rail rail_electric rail_fast ship container cable_car subway aircraft wheelchair scooter drone" speed="27.78" length="9.19" shape="1064.80,420.00 1058.00,413.58"/>
    </edge>
    <edge id=":1901865134_4" function="internal">
        <lane id=":1901865134_4_0" index="0" disallow="tram rail_urban rail rail_electric rail_fast ship container cable_car subway aircraft wheelchair scooter drone" speed="6.20" length="7.76" shape="1064.80,420.00 1062.98,417.95 1061.97,416.16 1061.77,414.62 1062.38,413.34"/>
    </edge>
    <edge id=":1901865134_5" function="internal">
        <lane id=":1901865134_5_0" index="0" disallow="tram rail_urban rail rail_electric rail_fast ship container cable_car subway aircraft wheelchair scooter drone" speed="6.85" length="10.26" shape="1064.78,415.46 1062.64,417.29 1060.43,417.98 1058.17,417.53 1055.84,415.94"/>
        <lane id=":1901865134_5_1" index="1" disallow="tram rail_urban rail rail_electric rail_fast ship container cable_car subway aircraft wheelchair scooter drone" speed="6.06" length="7.81" shape="1064.78,415.46 1063.57,416.24 1062.03,416.19 1060.17,415.30 1058.00,413.58"/>
    </edge>
    <edge id=":1901865134_7" function="internal">
        <lane id=":1901865134_7_0" index="0" disallow="tram rail_urban rail rail_electric rail_fast ship container cable_car subway aircraft wheelchair scooter drone" speed="3.65" length="4.67" shape="1064.78,415.46 1063.39,415.83 1062.52,415.60 1062.19,414.77 1062.38,413.34"/>
    </edge>
    <edge id=":1901865135_0" function="internal">
        <lane id=":1901865135_0_0" index="0" disallow="tram rail_urban rail rail_electric rail_fast ship container cable_car subway aircraft wheelchair scooter drone" speed="27.78" length="9.59" shape="1071.88,398.60 1078.79,405.43"/>
        <lane id=":1901865135_0_1" index="1" disallow="tram rail_urban rail rail_electric rail_fast ship container cable_car subway aircraft wheelchair scooter drone" speed="27.78" length="9.59" shape="1069.66,400.90 1076.51,407.68"/>
        <lane id=":1901865135_0_2" index="2" disallow="tram rail_urban rail rail_electric rail_fast ship container cable_car subway aircraft wheelchair scooter drone" speed="27.78" length="9.59" shape="1067.44,403.21 1074.23,409.92"/>
        <lane id=":1901865135_0_3" index="3" disallow="tram rail_urban rail rail_electric rail_fast ship container cable_car subway aircraft wheelchair scooter drone" speed="27.78" length="9.59" shape="1065.23,405.52 1071.95,412.17"/>
    </edge>
    <edge id=":1901865135_4" function="internal">
        <lane id=":1901865135_4_0" index="0" disallow="tram rail_urban rail rail_electric rail_fast ship container cable_car subway aircraft wheelchair scooter drone" speed="6.22" length="7.90" shape="1065.23,405.52 1067.06,407.56 1068.06,409.37 1068.23,410.95 1067.56,412.29"/>
    </edge>
    <edge id=":1901865135_5" function="internal">
        <lane id=":1901865135_5_0" index="0" disallow="tram rail_urban rail rail_electric rail_fast ship container cable_car subway aircraft wheelchair scooter drone" speed="6.81" length="10.52" shape="1065.16,410.18 1067.37,408.29 1069.62,407.62 1071.91,408.16 1074.23,409.92"/>
        <lane id=":1901865135_5_1" index="1" disallow="tram rail_urban rail rail_electric rail_fast ship container cable_car subway aircraft wheelchair scooter drone" speed="6.01" length="7.96" shape="1065.16,410.18 1066.44,409.33 1067.99,409.38 1069.83,410.33 1071.95,412.17"/>
    </edge>
    <edge id=":1901865135_7" function="internal">
        <lane id=":1901865135_7_0" index="0" disallow="tram rail_urban rail rail_electric rail_fast ship container cable_car subway aircraft wheelchair scooter drone" speed="3.65" length="4.67" shape="1065.16,410.18 1066.55,409.81 1067.42,410.04 1067.75,410.86 1067.56,412.29"/>
    </edge>
    <edge id=":317366889_0" function="internal">
        <lane id=":317366889_0_0" index="0" disallow="tram rail_urban rail rail_electric rail_fast ship container cable_car subway aircraft wheelchair scooter drone" speed="6.58" length="8.98" shape="1299.38,609.19 1297.95,611.18 1297.46,613.17 1297.93,615.15 1299.36,617.13"/>
        <lane id=":317366889_0_1" index="1" disallow="tram rail_urban rail rail_electric rail_fast ship container cable_car subway aircraft wheelchair scooter drone" speed="7.40" length="11.61" shape="1299.38,609.19 1296.97,612.19 1295.78,614.89 1295.81,617.27 1297.06,619.35"/>
    </edge>
    <edge id=":317366889_2" function="internal">
        <lane id=":317366889_2_0" index="0" disallow="tram rail_urban rail rail_electric rail_fast ship container cable_car subway aircraft wheelchair scooter drone" speed="3.65" length="4.67" shape="1299.38,609.19 1297.98,609.50 1297.12,609.24 1296.82,608.39 1297.07,606.97"/>
    </edge>
    <edge id=":317366889_3" function="internal">
        <lane id=":317366889_3_0" index="0" disallow="tram rail_urban rail rail_electric rail_fast ship container cable_car subway aircraft wheelchair scooter drone" speed="6.51" length="8.92" shape="1289.22,607.21 1291.23,608.60 1293.21,609.02 1295.15,608.48 1297.07,606.97"/>
    </edge>
    <edge id=":317366889_4" function="internal">
        <lane id=":317366889_4_0" index="0" disallow="tram rail_urban rail rail_electric rail_fast ship container cable_car subway aircraft wheelchair scooter drone" speed="27.78" length="13.91" shape="1289.22,607.21 1299.36,617.13"/>
        <lane id=":317366889_4_1" index="1" disallow="tram rail_urban rail rail_electric rail_fast ship container cable_car subway aircraft wheelchair scooter drone" speed="27.78" length="13.91" shape="1287.05,609.56 1297.06,619.35"/>
        <lane id=":317366889_4_2" index="2" disallow="tram rail_urban rail rail_electric rail_fast ship container cable_car subway aircraft wheelchair scooter drone" speed="27.78" length="13.91" shape="1284.87,611.91 1294.76,621.57"/>
        <lane id=":317366889_4_3" index="3" disallow="tram rail_urban rail rail_electric rail_fast ship container cable_car subway aircraft wheelchair scooter drone" speed="27.78" length="13.91" shape="1282.70,614.26 1292.45,623.80"/>
    </edge>
    <edge id=":442990465_0" function="internal">
        <lane id=":442990465_0_0" index="0" disallow="tram rail_urban rail rail_electric rail_fast ship container cable_car subway aircraft wheelchair scooter drone" speed="27.78" length="8.60" shape="1232.82,626.42 1224.26,625.62"/>
    </edge>
    <edge id=":442990465_1" function="internal">
        <lane id=":442990465_1_0" index="0" disallow="tram rail_urban rail rail_electric rail_fast ship container cable_car subway aircraft wheelchair scooter drone" speed="6.19" length="2.63" shape="1232.82,626.42 1230.29,625.69"/>
    </edge>
    <edge id=":442990465_2" function="internal">
        <lane id=":442990465_2_0" index="0" disallow="tram rail_urban rail rail_electric rail_fast ship container cable_car subway aircraft wheelchair scooter drone" speed="3.65" length="1.44" shape="1232.82,626.42 1231.70,625.51"/>
    </edge>
    <edge id=":442990465_6" function="internal">
        <lane id=":442990465_6_0" index="0" disallow="tram rail_urban rail rail_electric rail_fast ship container cable_car subway aircraft wheelchair scooter drone" speed="6.19" length="8.02" shape="1230.29,625.69 1229.08,624.11 1229.19,621.67 1230.61,618.38"/>
    </edge>
    <edge id=":442990465_7" function="internal">
        <lane id=":442990465_7_0" index="0" disallow="tram rail_urban rail rail_electric rail_fast ship container cable_car subway aircraft wheelchair scooter drone" speed="3.65" length="3.23" shape="1231.70,625.51 1231.38,624.68 1231.85,623.92 1233.12,623.24"/>
    </edge>
    <edge id=":442990465_3" function="internal">
        <lane id=":442990465_3_0" index="0" disallow="tram rail_urban rail rail_electric rail_fast ship container cable_car subway aircraft wheelchair scooter drone" speed="7.23" length="7.73" shape="1224.55,622.43 1226.28,622.30 1227.87,621.58 1229.31,620.28 1230.61,618.38"/>
    </edge>
    <edge id=":442990465_4" function="internal">
        <lane id=":442990465_4_0" index="0" disallow="tram rail_urban rail rail_electric rail_fast ship container cable_car subway aircraft wheelchair scooter drone" speed="27.78" length="8.61" shape="1224.55,622.43 1233.12,623.24"/>
    </edge>
    <edge id=":442990465_5" function="internal">
        <lane id=":442990465_5_0" index="0" disallow="tram rail_urban rail rail_electric rail_fast ship container cable_car subway aircraft wheelchair scooter drone" speed="3.65" length="1.44" shape="1224.55,622.43 1225.67,623.34"/>
    </edge>
    <edge id=":442990465_8" function="internal">
        <lane id=":442990465_8_0" index="0" disallow="tram rail_urban rail rail_electric rail_fast ship container cable_car subway aircraft wheelchair scooter drone" speed="3.65" length="3.23" shape="1225.67,623.34 1226.00,624.17 1225.53,624.93 1224.26,625.62"/>
    </edge>
    <edge id=":5710102313_0" function="internal">
        <lane id=":5710102313_0_0" index="0" disallow="tram rail_urban rail rail_electric rail_fast ship container cable_car subway aircraft wheelchair scooter drone" speed="27.78" length="0.35" shape="1062.90,431.56 1062.57,431.24"/>
        <lane id=":5710102313_0_1" index="1" disallow="tram rail_urban rail rail_electric rail_fast ship container cable_car subway aircraft wheelchair scooter drone" speed="27.78" length="0.35" shape="1065.09,429.22 1064.81,428.95"/>
        <lane id=":5710102313_0_2" index="2" disallow="tram rail_urban rail rail_electric rail_fast ship container cable_car subway aircraft wheelchair scooter drone" speed="27.78" length="0.35" shape="1067.27,426.88 1067.04,426.66"/>
        <lane id=":5710102313_0_3" index="3" disallow="tram rail_urban rail rail_electric rail_fast ship container cable_car subway aircraft wheelchair scooter drone" speed="27.78" length="0.35" shape="1069.45,424.54 1069.28,424.37"/>
    </edge>
    <edge id=":5710673956_0" function="internal">
        <lane id=":5710673956_0_0" index="0" disallow="tram rail_urban rail rail_electric rail_fast ship container cable_car subway aircraft wheelchair scooter drone" speed="27.78" length="9.92" shape="1330.53,649.38 1332.53,651.54 1333.88,653.05 1335.31,654.46 1337.57,656.34"/>
        <lane id=":5710673956_0_1" index="1" disallow="tram rail_urban rail rail_electric rail_fast ship container cable_car subway aircraft wheelchair scooter drone" speed="27.78" length="10.36" shape="1328.23,651.60 1330.32,653.85 1331.73,655.43 1333.23,656.90 1335.59,658.86"/>
    </edge>
    <edge id=":5710673956_2" function="internal">
        <lane id=":5710673956_2_0" index="0" disallow="tram rail_urban rail rail_electric rail_fast ship container cable_car subway aircraft wheelchair scooter drone" speed="27.78" length="5.76" shape="1325.93,653.82 1327.15,655.14 1327.90,656.12 1328.57,657.16 1329.53,658.68"/>
        <lane id=":5710673956_2_1" index="1" disallow="tram rail_urban rail rail_electric rail_fast ship container cable_car subway aircraft wheelchair scooter drone" speed="27.78" length="5.76" shape="1323.63,656.05 1324.72,657.24 1325.39,658.12 1325.99,659.06 1326.85,660.43"/>
    </edge>
    <edge id=":5710673992_0" function="internal">
        <lane id=":5710673992_0_0" index="0" disallow="tram rail_urban rail rail_electric rail_fast ship container cable_car subway aircraft wheelchair scooter drone" speed="27.78" length="11.26" shape="1317.25,674.73 1314.79,672.58 1312.78,671.48 1310.73,670.44 1308.12,668.44"/>
        <lane id=":5710673992_0_1" index="1" disallow="tram rail_urban rail rail_electric rail_fast ship container cable_car subway aircraft wheelchair scooter drone" speed="27.78" length="11.26" shape="1319.58,672.54 1317.08,670.34 1315.04,669.21 1312.95,668.14 1310.29,666.09"/>
    </edge>
    <edge id=":5710673992_2" function="internal">
        <lane id=":5710673992_2_0" index="0" disallow="tram rail_urban rail rail_electric rail_fast ship container cable_car subway aircraft wheelchair scooter drone" speed="27.78" length="10.81" shape="1321.82,669.73 1318.91,668.14 1316.87,667.09 1314.97,665.87 1312.46,663.74"/>
        <lane id=":5710673992_2_1" index="1" disallow="tram rail_urban rail rail_electric rail_fast ship container cable_car subway aircraft wheelchair scooter drone" speed="27.78" length="10.81" shape="1323.44,666.97 1320.71,665.48 1318.79,664.52 1316.99,663.38 1314.64,661.39"/>
    </edge>
    <edge id=":5716241016_0" function="internal">
        <lane id=":5716241016_0_0" index="0" disallow="tram rail_urban rail rail_electric rail_fast ship container cable_car subway aircraft wheelchair scooter drone" speed="11.05" length="7.12" shape="569.94,732.41 568.18,731.37 566.78,731.05 565.26,731.09 563.14,731.13"/>
    </edge>
    <edge id=":5716241016_1" function="internal">
        <lane id=":5716241016_1_0" index="0" disallow="tram rail_urban rail rail_electric rail_fast ship container cable_car subway aircraft wheelchair scooter drone" speed="22.22" length="7.28" shape="569.94,732.41 568.23,731.04 567.16,729.98 566.13,728.87 564.52,727.39"/>
        <lane id=":5716241016_1_1" index="1" disallow="tram rail_urban rail rail_electric rail_fast ship container cable_car subway aircraft wheelchair scooter drone" speed="22.22" length="7.28" shape="571.81,729.81 570.16,728.49 569.14,727.46 568.14,726.38 566.58,724.94"/>
    </edge>
    <edge id=":5716241016_3" function="internal">
        <lane id=":5716241016_3_0" index="0" disallow="tram rail_urban rail rail_electric rail_fast ship container cable_car subway aircraft wheelchair scooter drone" speed="3.65" length="1.44" shape="571.81,729.81 571.31,728.46"/>
    </edge>
    <edge id=":5716241016_8" function="internal">
        <lane id=":5716241016_8_0" index="0" disallow="tram rail_urban rail rail_electric rail_fast ship container cable_car subway aircraft wheelchair scooter drone" speed="3.65" length="3.23" shape="571.31,728.46 571.46,727.58 572.25,727.17 573.69,727.22"/>
    </edge>
    <edge id=":5716241016_4" function="internal">
        <lane id=":5716241016_4_0" index="0" disallow="tram rail_urban rail rail_electric rail_fast ship container cable_car subway aircraft wheelchair scooter drone" speed="22.22" length="6.79" shape="570.71,720.06 575.56,724.63"/>
        <lane id=":5716241016_4_1" index="1" disallow="tram rail_urban rail rail_electric rail_fast ship container cable_car subway aircraft wheelchair scooter drone" speed="22.22" length="6.79" shape="568.65,722.50 573.69,727.22"/>
    </edge>
    <edge id=":5716241016_6" function="internal">
        <lane id=":5716241016_6_0" index="0" disallow="tram rail_urban rail rail_electric rail_fast ship container cable_car subway aircraft wheelchair scooter drone" speed="7.04" length="5.86" shape="568.65,722.50 572.36,726.47 572.41,726.89"/>
    </edge>
    <edge id=":5716241016_7" function="internal">
        <lane id=":5716241016_7_0" index="0" disallow="tram rail_urban rail rail_electric rail_fast ship container cable_car subway aircraft wheelchair scooter drone" speed="3.65" length="1.44" shape="568.65,722.50 569.05,723.89"/>
    </edge>
    <edge id=":5716241016_9" function="internal">
        <lane id=":5716241016_9_0" index="0" disallow="tram rail_urban rail rail_electric rail_fast ship container cable_car subway aircraft wheelchair scooter drone" speed="7.04" length="12.28" shape="572.41,726.89 572.68,729.23 569.60,730.78 563.14,731.13"/>
    </edge>
    <edge id=":5716241016_10" function="internal">
        <lane id=":5716241016_10_0" index="0" disallow="tram rail_urban rail rail_electric rail_fast ship container cable_car subway aircraft wheelchair scooter drone" speed="3.65" length="3.23" shape="569.05,723.89 568.84,724.75 568.01,725.11 566.58,724.94"/>
    </edge>
    <edge id=":5716241017_0" function="internal">
        <lane id=":5716241017_0_0" index="0" disallow="tram rail_urban rail rail_electric rail_fast ship container cable_car subway aircraft wheelchair scooter drone" speed="9.73" length="8.51" shape="535.96,731.32 533.45,731.65 531.66,732.02 530.18,732.90 528.56,734.72"/>
    </edge>
    <edge id=":5716241017_1" function="internal">
        <lane id=":5716241017_1_0" index="0" disallow="tram rail_urban rail rail_electric rail_fast ship container cable_car subway aircraft wheelchair scooter drone" speed="16.67" length="8.75" shape="533.80,727.71 528.56,734.72"/>
        <lane id=":5716241017_1_1" index="1" disallow="tram rail_urban rail rail_electric rail_fast ship container cable_car subway aircraft wheelchair scooter drone" speed="16.67" length="8.75" shape="531.23,725.79 526.00,732.80"/>
        <lane id=":5716241017_1_2" index="2" disallow="tram rail_urban rail rail_electric rail_fast ship container cable_car subway aircraft wheelchair scooter drone" speed="16.67" length="8.75" shape="528.67,723.88 523.44,730.88"/>
    </edge>
    <edge id=":5716670119_0" function="internal">
        <lane id=":5716670119_0_0" index="0" disallow="tram rail_urban rail rail_electric rail_fast ship container cable_car subway aircraft wheelchair scooter drone" speed="27.78" length="4.38" shape="1329.33,674.75 1328.47,673.93 1327.86,673.38 1327.19,672.90 1326.18,672.29"/>
        <lane id=":5716670119_0_1" index="1" disallow="tram rail_urban rail rail_electric rail_fast ship container cable_car subway aircraft wheelchair scooter drone" speed="27.78" length="4.38" shape="1331.53,672.42 1330.51,671.45 1329.78,670.81 1329.00,670.25 1327.80,669.53"/>
    </edge>
    <edge id=":5716670119_2" function="internal">
        <lane id=":5716670119_2_0" index="0" disallow="tram rail_urban rail rail_electric rail_fast ship container cable_car subway aircraft wheelchair scooter drone" speed="27.78" length="3.75" shape="1333.77,665.19 1334.32,666.02 1334.73,666.57 1335.20,667.08 1335.92,667.77"/>
        <lane id=":5716670119_2_1" index="1" disallow="tram rail_urban rail rail_electric rail_fast ship container cable_car subway aircraft wheelchair scooter drone" speed="27.78" length="3.75" shape="1331.09,666.94 1331.77,667.96 1332.27,668.63 1332.84,669.25 1333.73,670.09"/>
    </edge>
    <edge id=":6405790166_0" function="internal">
        <lane id=":6405790166_0_0" index="0" disallow="tram rail_urban rail rail_electric rail_fast ship container cable_car subway aircraft wheelchair scooter drone" speed="27.78" length="0.42" shape="1158.06,524.47 1157.65,524.08"/>
        <lane id=":6405790166_0_1" index="1" disallow="tram rail_urban rail rail_electric rail_fast ship container cable_car subway aircraft wheelchair scooter drone" speed="27.78" length="0.42" shape="1160.24,522.13 1159.90,521.81"/>
        <lane id=":6405790166_0_2" index="2" disallow="tram rail_urban rail rail_electric rail_fast ship container cable_car subway aircraft wheelchair scooter drone" speed="27.78" length="0.42" shape="1162.43,519.80 1162.16,519.53"/>
        <lane id=":6405790166_0_3" index="3" disallow="tram rail_urban rail rail_electric rail_fast ship container cable_car subway aircraft wheelchair scooter drone" speed="27.78" length="0.42" shape="1164.61,517.46 1164.41,517.26"/>
    </edge>
    <edge id=":6587651051_0" function="internal">
        <lane id=":6587651051_0_0" index="0" disallow="tram rail_urban rail rail_electric rail_fast ship container cable_car subway aircraft wheelchair scooter drone" speed="27.78" length="10.76" shape="1241.08,603.76 1233.60,596.23"/>
        <lane id=":6587651051_0_1" index="1" disallow="tram rail_urban rail rail_electric rail_fast ship container cable_car subway aircraft wheelchair scooter drone" speed="27.78" length="10.76" shape="1243.37,601.51 1235.81,593.91"/>
        <lane id=":6587651051_0_2" index="2" disallow="tram rail_urban rail rail_electric rail_fast ship container cable_car subway aircraft wheelchair scooter drone" speed="27.78" length="10.76" shape="1245.65,599.27 1238.03,591.60"/>
        <lane id=":6587651051_0_3" index="3" disallow="tram rail_urban rail rail_electric rail_fast ship container cable_car subway aircraft wheelchair scooter drone" speed="27.78" length="10.76" shape="1247.93,597.03 1240.24,589.29"/>
    </edge>
    <edge id=":6587651051_4" function="internal">
        <lane id=":6587651051_4_0" index="0" disallow="tram rail_urban rail rail_electric rail_fast ship container cable_car subway aircraft wheelchair scooter drone" speed="8.17" length="10.13" shape="1236.65,605.27 1237.08,603.00 1236.71,600.73 1235.56,598.47 1233.60,596.23"/>
        <lane id=":6587651051_4_1" index="1" disallow="tram rail_urban rail rail_electric rail_fast ship container cable_car subway aircraft wheelchair scooter drone" speed="8.86" length="12.03" shape="1236.65,605.27 1237.66,601.62 1237.86,598.51 1237.24,595.94 1235.81,593.91"/>
    </edge>
    <edge id=":6631825217_0" function="internal">
        <lane id=":6631825217_0_0" index="0" disallow="tram rail_urban rail rail_electric rail_fast ship container cable_car subway aircraft wheelchair scooter drone" speed="16.67" length="0.29" shape="247.07,1224.32 246.91,1224.62"/>
        <lane id=":6631825217_0_1" index="1" disallow="tram rail_urban rail rail_electric rail_fast ship container cable_car subway aircraft wheelchair scooter drone" speed="16.67" length="0.29" shape="244.27,1222.78 244.13,1223.04"/>
        <lane id=":6631825217_0_2" index="2" disallow="tram rail_urban rail rail_electric rail_fast ship container cable_car subway aircraft wheelchair scooter drone" speed="16.67" length="0.29" shape="241.47,1221.24 241.35,1221.45"/>
    </edge>
    <edge id=":98041263_0" function="internal">
        <lane id=":98041263_0_0" index="0" disallow="tram rail_urban rail rail_electric rail_fast ship container cable_car subway aircraft wheelchair scooter drone" speed="27.78" length="0.45" shape="1087.35,454.35 1087.13,454.14"/>
        <lane id=":98041263_0_1" index="1" disallow="tram rail_urban rail rail_electric rail_fast ship container cable_car subway aircraft wheelchair scooter drone" speed="27.78" length="0.45" shape="1089.60,452.07 1089.31,451.80"/>
        <lane id=":98041263_0_2" index="2" disallow="tram rail_urban rail rail_electric rail_fast ship container cable_car subway aircraft wheelchair scooter drone" speed="27.78" length="0.45" shape="1091.86,449.80 1091.50,449.46"/>
        <lane id=":98041263_0_3" index="3" disallow="tram rail_urban rail rail_electric rail_fast ship container cable_car subway aircraft wheelchair scooter drone" speed="27.78" length="0.45" shape="1094.11,447.53 1093.68,447.11"/>
    </edge>
    <edge id=":cluster5716241014_cluster10203950534_10203959171_1748294272_6629826080_#5more_0" function="internal">