<?xml version="1.0" encoding="UTF-8"?>

<!-- generated on 2025-06-04 14:02:49 by Eclipse SUMO netedit Version 1.22.0
<neteditConfiguration xmlns:xsi="http://www.w3.org/2001/XMLSchema-instance" xsi:noNamespaceSchemaLocation="http://sumo.dlr.de/xsd/neteditConfiguration.xsd">

    <input>
        <sumo-net-file value=".\nghia_region.net.xml"/>
    </input>

    <output>
        <output-file value=".\nghia_region.net.xml"/>
    </output>

    <processing>
        <geometry.min-radius.fix.railways value="false"/>
        <geometry.max-grade.fix value="false"/>
        <offset.disable-normalization value="true"/>
        <lefthand value="0"/>
    </processing>

    <junctions>
        <no-turnarounds value="true"/>
        <junctions.corner-detail value="5"/>
        <junctions.limit-turn-speed value="5.50"/>
        <rectangular-lane-cut value="0"/>
    </junctions>

    <pedestrian>
        <walkingareas value="0"/>
    </pedestrian>

</neteditConfiguration>
-->

<net version="1.20" junctionCornerDetail="5" limitTurnSpeed="5.50" xmlns:xsi="http://www.w3.org/2001/XMLSchema-instance" xsi:noNamespaceSchemaLocation="http://sumo.dlr.de/xsd/net_file.xsd">

    <location netOffset="-580589.11,-2323475.94" convBoundary="0.00,30.96,2378.07,2232.72" origBoundary="105.772785,21.007881,105.799128,21.033919" projParameter="+proj=utm +zone=48 +ellps=WGS84 +datum=WGS84 +units=m +no_defs"/>

    <type id="highway.motorway" priority="14" numLanes="2" speed="39.44" allow="private emergency authority army vip passenger hov taxi bus coach delivery truck trailer motorcycle evehicle custom1 custom2" oneway="1"/>
    <type id="highway.primary" priority="12" numLanes="2" speed="27.78" disallow="tram rail_urban rail rail_electric rail_fast ship container cable_car subway aircraft wheelchair scooter drone" oneway="0"/>
    <type id="highway.primary_link" priority="7" numLanes="1" speed="22.22" disallow="tram rail_urban rail rail_electric rail_fast ship container cable_car subway aircraft wheelchair scooter drone" oneway="0"/>
    <type id="highway.secondary" priority="11" numLanes="1" speed="27.78" disallow="tram rail_urban rail rail_electric rail_fast ship container cable_car subway aircraft wheelchair scooter drone" oneway="0"/>
    <type id="highway.secondary_link" priority="6" numLanes="1" speed="22.22" disallow="tram rail_urban rail rail_electric rail_fast ship container cable_car subway aircraft wheelchair scooter drone" oneway="0"/>
    <type id="highway.tertiary" priority="10" numLanes="1" speed="22.22" disallow="tram rail_urban rail rail_electric rail_fast ship container cable_car subway aircraft wheelchair scooter drone" oneway="0"/>

    <edge id=":10202001771_0" function="internal">
        <lane id=":10202001771_0_0" index="0" disallow="tram rail_urban rail rail_electric rail_fast ship container cable_car subway aircraft wheelchair scooter drone" speed="20.84" length="18.94" width="5.15" shape="1038.11,1064.31 1043.36,1067.46 1047.94,1069.07 1052.02,1069.81 1055.79,1070.39"/>
    </edge>
    <edge id=":10202001771_1" function="internal">
        <lane id=":10202001771_1_0" index="0" disallow="tram rail_urban rail rail_electric rail_fast ship container cable_car subway aircraft wheelchair scooter drone" speed="27.78" length="19.17" width="3.75" shape="1038.11,1064.31 1053.40,1076.08"/>
        <lane id=":10202001771_1_1" index="1" disallow="tram rail_urban rail rail_electric rail_fast ship container cable_car subway aircraft wheelchair scooter drone" speed="27.78" length="19.17" width="3.75" shape="1035.89,1067.34 1051.11,1079.05"/>
        <lane id=":10202001771_1_2" index="2" disallow="tram rail_urban rail rail_electric rail_fast ship container cable_car subway aircraft wheelchair scooter drone" speed="27.78" length="19.17" width="3.75" shape="1033.67,1070.36 1048.83,1082.02"/>
        <lane id=":10202001771_1_3" index="3" disallow="tram rail_urban rail rail_electric rail_fast ship container cable_car subway aircraft wheelchair scooter drone" speed="27.78" length="19.17" width="3.75" shape="1031.45,1073.38 1046.54,1084.99"/>
    </edge>
    <edge id=":10202001781_0" function="internal">
        <lane id=":10202001781_0_0" index="0" disallow="tram rail_urban rail rail_electric rail_fast ship container cable_car subway aircraft wheelchair scooter drone" speed="12.34" length="17.41" width="3.75" shape="1093.35,1097.45 1093.95,1101.80 1095.17,1105.52 1096.99,1108.62 1099.43,1111.08"/>
        <lane id=":10202001781_0_1" index="1" disallow="tram rail_urban rail rail_electric rail_fast ship container cable_car subway aircraft wheelchair scooter drone" speed="13.05" length="17.41" width="3.75" shape="1093.35,1097.45 1093.93,1103.87 1094.75,1108.77 1095.81,1112.16 1097.12,1114.03"/>
        <lane id=":10202001781_0_2" index="2" disallow="tram rail_urban rail rail_electric rail_fast ship container cable_car subway aircraft wheelchair scooter drone" speed="13.88" length="17.41" width="3.75" shape="1093.35,1097.45 1093.49,1100.83 1093.81,1107.36 1094.26,1113.81 1094.81,1116.98"/>
    </edge>
    <edge id=":10202001781_3" function="internal">
        <lane id=":10202001781_3_0" index="0" disallow="tram rail_urban rail rail_electric rail_fast ship container cable_car subway aircraft wheelchair scooter drone" speed="27.78" length="15.53" width="3.75" shape="1086.84,1101.79 1099.43,1111.08"/>
        <lane id=":10202001781_3_1" index="1" disallow="tram rail_urban rail rail_electric rail_fast ship container cable_car subway aircraft wheelchair scooter drone" speed="27.78" length="15.53" width="3.75" shape="1084.59,1104.79 1097.12,1114.03"/>
        <lane id=":10202001781_3_2" index="2" disallow="tram rail_urban rail rail_electric rail_fast ship container cable_car subway aircraft wheelchair scooter drone" speed="27.78" length="15.53" width="3.75" shape="1082.34,1107.79 1094.81,1116.98"/>
        <lane id=":10202001781_3_3" index="3" disallow="tram rail_urban rail rail_electric rail_fast ship container cable_car subway aircraft wheelchair scooter drone" speed="27.78" length="15.53" width="3.75" shape="1080.09,1110.79 1092.50,1119.94"/>
    </edge>
    <edge id=":10203920310_0" function="internal">
        <lane id=":10203920310_0_0" index="0" disallow="tram rail_urban rail rail_electric rail_fast ship container cable_car subway aircraft wheelchair scooter drone" speed="13.65" length="13.37" width="7.00" shape="1550.45,1490.80 1547.07,1488.53 1544.18,1487.54 1541.30,1487.30 1537.95,1487.29"/>
    </edge>
    <edge id=":10203920310_1" function="internal">
        <lane id=":10203920310_1_0" index="0" disallow="tram rail_urban rail rail_electric rail_fast ship container cable_car subway aircraft wheelchair scooter drone" speed="27.78" length="8.79" shape="1550.45,1490.80 1544.05,1485.04"/>
        <lane id=":10203920310_1_1" index="1" disallow="tram rail_urban rail rail_electric rail_fast ship container cable_car subway aircraft wheelchair scooter drone" speed="27.78" length="8.79" shape="1552.82,1487.90 1545.99,1482.50"/>
        <lane id=":10203920310_1_2" index="2" disallow="tram rail_urban rail rail_electric rail_fast ship container cable_car subway aircraft wheelchair scooter drone" speed="27.78" length="8.79" shape="1555.19,1484.99 1547.93,1479.95"/>
        <lane id=":10203920310_1_3" index="3" disallow="tram rail_urban rail rail_electric rail_fast ship container cable_car subway aircraft wheelchair scooter drone" speed="27.78" length="8.79" shape="1557.56,1482.08 1555.39,1480.54 1553.75,1479.70 1552.09,1478.89 1549.87,1477.41"/>
    </edge>
    <edge id=":10203920324_0" function="internal">
        <lane id=":10203920324_0_0" index="0" disallow="tram rail_urban rail rail_electric rail_fast ship container cable_car subway aircraft wheelchair scooter drone" speed="27.78" length="13.06" shape="1471.84,1493.10 1478.23,1481.79"/>
        <lane id=":10203920324_0_1" index="1" disallow="tram rail_urban rail rail_electric rail_fast ship container cable_car subway aircraft wheelchair scooter drone" speed="27.78" length="13.06" shape="1474.62,1494.69 1481.04,1483.32"/>
        <lane id=":10203920324_0_2" index="2" disallow="tram rail_urban rail rail_electric rail_fast ship container cable_car subway aircraft wheelchair scooter drone" speed="27.78" length="13.06" shape="1477.40,1496.27 1483.85,1484.85"/>
    </edge>
    <edge id=":10203920324_3" function="internal">
        <lane id=":10203920324_3_0" index="0" disallow="tram rail_urban rail rail_electric rail_fast ship container cable_car subway aircraft wheelchair scooter drone" speed="7.01" length="10.29" shape="1477.40,1496.27 1479.60,1493.12 1481.59,1491.10 1483.38,1490.22 1484.98,1490.48"/>
        <lane id=":10203920324_3_1" index="1" disallow="tram rail_urban rail rail_electric rail_fast ship container cable_car subway aircraft wheelchair scooter drone" speed="6.08" length="7.50" shape="1477.40,1496.27 1478.87,1494.31 1480.36,1493.16 1481.88,1492.82 1483.42,1493.28"/>
    </edge>
    <edge id=":10203920325_0" function="internal">
        <lane id=":10203920325_0_0" index="0" disallow="tram rail_urban rail rail_electric rail_fast ship container cable_car subway aircraft wheelchair scooter drone" speed="27.78" length="5.71" shape="1496.78,1490.72 1493.97,1495.69"/>
        <lane id=":10203920325_0_1" index="1" disallow="tram rail_urban rail rail_electric rail_fast ship container cable_car subway aircraft wheelchair scooter drone" speed="27.78" length="5.71" shape="1494.00,1489.14 1491.18,1494.11"/>
        <lane id=":10203920325_0_2" index="2" disallow="tram rail_urban rail rail_electric rail_fast ship container cable_car subway aircraft wheelchair scooter drone" speed="27.78" length="5.71" shape="1491.22,1487.56 1488.40,1492.52"/>
    </edge>
    <edge id=":10203920325_3" function="internal">
        <lane id=":10203920325_3_0" index="0" disallow="tram rail_urban rail rail_electric rail_fast ship container cable_car subway aircraft wheelchair scooter drone" speed="5.83" length="7.10" shape="1485.15,1490.58 1486.53,1491.21 1488.68,1492.20 1490.57,1493.26 1491.18,1494.11"/>
        <lane id=":10203920325_3_1" index="1" disallow="tram rail_urban rail rail_electric rail_fast ship container cable_car subway aircraft wheelchair scooter drone" speed="4.97" length="4.88" shape="1483.60,1493.37 1488.40,1492.52"/>
    </edge>
    <edge id=":10203920328_0" function="internal">
        <lane id=":10203920328_0_0" index="0" disallow="tram rail_urban rail rail_electric rail_fast ship container cable_car subway aircraft wheelchair scooter drone" speed="7.04" length="10.93" shape="1539.95,1396.15 1537.76,1394.18 1536.77,1391.96 1536.97,1389.48 1538.36,1386.75"/>
        <lane id=":10203920328_0_1" index="1" disallow="tram rail_urban rail rail_electric rail_fast ship container cable_car subway aircraft wheelchair scooter drone" speed="5.28" length="5.68" shape="1541.72,1393.48 1540.61,1392.47 1540.12,1391.31 1540.24,1390.02 1540.99,1388.57"/>
    </edge>
    <edge id=":10203920328_2" function="internal">
        <lane id=":10203920328_2_0" index="0" disallow="tram rail_urban rail rail_electric rail_fast ship container cable_car subway aircraft wheelchair scooter drone" speed="16.67" length="12.69" shape="1528.70,1395.67 1535.73,1384.92"/>
        <lane id=":10203920328_2_1" index="1" disallow="tram rail_urban rail rail_electric rail_fast ship container cable_car subway aircraft wheelchair scooter drone" speed="16.67" length="12.69" shape="1531.42,1397.36 1538.36,1386.75"/>
        <lane id=":10203920328_2_2" index="2" disallow="tram rail_urban rail rail_electric rail_fast ship container cable_car subway aircraft wheelchair scooter drone" speed="16.67" length="12.69" shape="1534.13,1399.06 1540.99,1388.57"/>
    </edge>
    <edge id=":10203920329_0" function="internal">
        <lane id=":10203920329_0_0" index="0" disallow="tram rail_urban rail rail_electric rail_fast ship container cable_car subway aircraft wheelchair scooter drone" speed="16.67" length="11.39" shape="1551.59,1396.52 1545.72,1406.23"/>
        <lane id=":10203920329_0_1" index="1" disallow="tram rail_urban rail rail_electric rail_fast ship container cable_car subway aircraft wheelchair scooter drone" speed="16.67" length="11.39" shape="1548.86,1394.85 1542.97,1404.59"/>
        <lane id=":10203920329_0_2" index="2" disallow="tram rail_urban rail rail_electric rail_fast ship container cable_car subway aircraft wheelchair scooter drone" speed="16.67" length="11.39" shape="1546.14,1393.17 1540.22,1402.95"/>
    </edge>
    <edge id=":10203920329_3" function="internal">
        <lane id=":10203920329_3_0" index="0" disallow="tram rail_urban rail rail_electric rail_fast ship container cable_car subway aircraft wheelchair scooter drone" speed="5.97" length="7.62" shape="1546.14,1393.17 1544.60,1395.25 1543.08,1396.45 1541.59,1396.79 1540.12,1396.26"/>
        <lane id=":10203920329_3_1" index="1" disallow="tram rail_urban rail rail_electric rail_fast ship container cable_car subway aircraft wheelchair scooter drone" speed="4.94" length="4.89" shape="1546.14,1393.17 1545.34,1394.06 1544.36,1394.42 1543.21,1394.27 1541.88,1393.59"/>
    </edge>
    <edge id=":1219243660_0" function="internal">
        <lane id=":1219243660_0_0" index="0" disallow="tram rail_urban rail rail_electric rail_fast ship container cable_car subway aircraft wheelchair scooter drone" speed="8.87" length="17.28" shape="1766.77,1627.71 1768.30,1630.10 1768.12,1633.45 1766.22,1637.76 1762.61,1643.02"/>
    </edge>
    <edge id=":1219243660_1" function="internal">
        <lane id=":1219243660_1_0" index="0" disallow="tram rail_urban rail rail_electric rail_fast ship container cable_car subway aircraft wheelchair scooter drone" speed="3.65" length="4.67" shape="1760.09,1641.06 1761.45,1640.60 1762.33,1640.78 1762.72,1641.59 1762.61,1643.02"/>
    </edge>
    <edge id=":1220930867_0" function="internal">
        <lane id=":1220930867_0_0" index="0" disallow="tram rail_urban rail rail_electric rail_fast ship container cable_car subway aircraft wheelchair scooter drone" speed="8.78" length="17.63" width="3.75" shape="1761.77,1644.11 1757.50,1648.94 1753.71,1651.80 1750.41,1652.68 1747.60,1651.58"/>
        <lane id=":1220930867_0_1" index="1" disallow="tram rail_urban rail rail_electric rail_fast ship container cable_car subway aircraft wheelchair scooter drone" speed="7.94" length="14.22" width="3.75" shape="1761.77,1644.11 1758.51,1647.65 1755.45,1649.59 1752.61,1649.93 1749.97,1648.67"/>
        <lane id=":1220930867_0_2" index="2" disallow="tram rail_urban rail rail_electric rail_fast ship container cable_car subway aircraft wheelchair scooter drone" speed="7.05" length="10.96" width="3.75" shape="1761.77,1644.11 1759.52,1646.36 1757.19,1647.38 1754.80,1647.18 1752.34,1645.76"/>
        <lane id=":1220930867_0_3" index="3" disallow="tram rail_urban rail rail_electric rail_fast ship container cable_car subway aircraft wheelchair scooter drone" speed="6.12" length="8.02" width="3.75" shape="1761.77,1644.11 1760.53,1645.07 1758.94,1645.17 1757.00,1644.44 1754.71,1642.86"/>
    </edge>
    <edge id=":1220930867_4" function="internal">
        <lane id=":1220930867_4_0" index="0" disallow="tram rail_urban rail rail_electric rail_fast ship container cable_car subway aircraft wheelchair scooter drone" speed="3.65" length="4.67" shape="1761.77,1644.11 1760.40,1644.57 1759.53,1644.39 1759.14,1643.59 1759.24,1642.15"/>
    </edge>
    <edge id=":1475295085_0" function="internal">
        <lane id=":1475295085_0_0" index="0" disallow="tram rail_urban rail rail_electric rail_fast ship container cable_car subway aircraft wheelchair scooter drone" speed="27.78" length="8.94" width="3.75" shape="348.64,1642.86 349.30,1651.43"/>
        <lane id=":1475295085_0_1" index="1" disallow="tram rail_urban rail rail_electric rail_fast ship container cable_car subway aircraft wheelchair scooter drone" speed="27.78" length="8.94" width="3.75" shape="344.89,1643.03 345.57,1651.83"/>
        <lane id=":1475295085_0_2" index="2" disallow="tram rail_urban rail rail_electric rail_fast ship container cable_car subway aircraft wheelchair scooter drone" speed="27.78" length="8.94" width="3.75" shape="341.15,1643.20 341.84,1652.23"/>
        <lane id=":1475295085_0_3" index="3" disallow="tram rail_urban rail rail_electric rail_fast ship container cable_car subway aircraft wheelchair scooter drone" speed="27.78" length="8.94" width="3.75" shape="337.40,1643.37 338.11,1652.63"/>
    </edge>
    <edge id=":1475295085_4" function="internal">
        <lane id=":1475295085_4_0" index="0" disallow="tram rail_urban rail rail_electric rail_fast ship container cable_car subway aircraft wheelchair scooter drone" speed="6.27" length="7.87" shape="337.40,1643.37 337.32,1646.11 336.81,1648.11 335.85,1649.36 334.45,1649.87"/>
    </edge>
    <edge id=":1475295085_5" function="internal">
        <lane id=":1475295085_5_0" index="0" disallow="tram rail_urban rail rail_electric rail_fast ship container cable_car subway aircraft wheelchair scooter drone" speed="7.08" length="10.74" width="3.75" shape="334.17,1646.69 337.28,1646.80 339.59,1647.76 341.11,1649.57 341.84,1652.23"/>
        <lane id=":1475295085_5_1" index="1" disallow="tram rail_urban rail rail_electric rail_fast ship container cable_car subway aircraft wheelchair scooter drone" speed="6.17" length="7.89" width="3.75" shape="334.17,1646.69 335.65,1646.95 336.79,1648.03 337.62,1649.92 338.11,1652.63"/>
    </edge>
    <edge id=":1475295085_7" function="internal">
        <lane id=":1475295085_7_0" index="0" disallow="tram rail_urban rail rail_electric rail_fast ship container cable_car subway aircraft wheelchair scooter drone" speed="3.65" length="4.67" shape="334.17,1646.69 335.44,1647.38 335.91,1648.14 335.58,1648.97 334.45,1649.87"/>
    </edge>
    <edge id=":1475295086_0" function="internal">
        <lane id=":1475295086_0_0" index="0" disallow="tram rail_urban rail rail_electric rail_fast ship container cable_car subway aircraft wheelchair scooter drone" speed="27.78" length="9.70" width="3.75" shape="302.85,1655.82 301.41,1646.40"/>
        <lane id=":1475295086_0_1" index="1" disallow="tram rail_urban rail rail_electric rail_fast ship container cable_car subway aircraft wheelchair scooter drone" speed="27.78" length="9.70" width="3.75" shape="307.83,1655.37 307.28,1652.57 306.47,1650.73 305.67,1648.89 305.14,1646.09"/>
        <lane id=":1475295086_0_2" index="2" disallow="tram rail_urban rail rail_electric rail_fast ship container cable_car subway aircraft wheelchair scooter drone" speed="27.78" length="9.70" width="3.75" shape="312.81,1654.91 312.06,1652.10 310.83,1650.35 309.60,1648.60 308.88,1645.78"/>
        <lane id=":1475295086_0_3" index="3" disallow="tram rail_urban rail rail_electric rail_fast ship container cable_car subway aircraft wheelchair scooter drone" speed="27.78" length="9.70" width="3.75" shape="312.81,1654.91 312.62,1645.48"/>
    </edge>
    <edge id=":1475295086_4" function="internal">
        <lane id=":1475295086_4_0" index="0" disallow="tram rail_urban rail rail_electric rail_fast ship container cable_car subway aircraft wheelchair scooter drone" speed="6.49" length="8.41" shape="312.81,1654.91 312.81,1652.14 313.38,1650.12 314.53,1648.83 316.24,1648.28"/>
    </edge>
    <edge id=":1475295086_5" function="internal">
        <lane id=":1475295086_5_0" index="0" disallow="tram rail_urban rail rail_electric rail_fast ship container cable_car subway aircraft wheelchair scooter drone" speed="7.06" length="10.87" width="3.75" shape="316.53,1651.47 313.38,1651.35 311.05,1650.36 309.55,1648.51 308.88,1645.78"/>
        <lane id=":1475295086_5_1" index="1" disallow="tram rail_urban rail rail_electric rail_fast ship container cable_car subway aircraft wheelchair scooter drone" speed="6.14" length="7.96" width="3.75" shape="316.53,1651.47 315.01,1651.20 313.85,1650.12 313.06,1648.21 312.62,1645.48"/>
    </edge>
    <edge id=":1475295086_7" function="internal">
        <lane id=":1475295086_7_0" index="0" disallow="tram rail_urban rail rail_electric rail_fast ship container cable_car subway aircraft wheelchair scooter drone" speed="3.65" length="4.67" shape="316.53,1651.47 315.26,1650.78 314.79,1650.01 315.12,1649.18 316.24,1648.28"/>
    </edge>
    <edge id=":1613087721_0" function="internal">
        <lane id=":1613087721_0_0" index="0" disallow="tram rail_urban rail rail_electric rail_fast ship container cable_car subway aircraft wheelchair scooter drone" speed="13.89" length="21.08" shape="1890.24,1052.16 1872.34,1041.04"/>
    </edge>
    <edge id=":1613087721_1" function="internal">
        <lane id=":1613087721_1_0" index="0" disallow="tram rail_urban rail rail_electric rail_fast ship container cable_car subway aircraft wheelchair scooter drone" speed="8.29" length="18.57" shape="1890.24,1052.16 1885.80,1048.38 1883.86,1044.63 1884.41,1040.92 1887.46,1037.26"/>
    </edge>
    <edge id=":1613087721_2" function="internal">
        <lane id=":1613087721_2_0" index="0" disallow="tram rail_urban rail rail_electric rail_fast ship container cable_car subway aircraft wheelchair scooter drone" speed="3.65" length="4.67" shape="1890.24,1052.16 1889.69,1050.83 1889.80,1049.94 1890.58,1049.50 1892.02,1049.50"/>
    </edge>
    <edge id=":1613087721_3" function="internal">
        <lane id=":1613087721_3_0" index="0" disallow="tram rail_urban rail rail_electric rail_fast ship container cable_car subway aircraft wheelchair scooter drone" speed="5.99" length="9.08" shape="1891.60,1042.14 1889.88,1044.08 1889.37,1045.96 1890.09,1047.76 1892.02,1049.50"/>
    </edge>
    <edge id=":1613087721_4" function="internal">
        <lane id=":1613087721_4_0" index="0" disallow="tram rail_urban rail rail_electric rail_fast ship container cable_car subway aircraft wheelchair scooter drone" speed="11.06" length="20.55" shape="1891.60,1042.14 1887.80,1044.28 1883.32,1044.81 1878.17,1043.73 1872.34,1041.04"/>
    </edge>
    <edge id=":1613087721_5" function="internal">
        <lane id=":1613087721_5_0" index="0" disallow="tram rail_urban rail rail_electric rail_fast ship container cable_car subway aircraft wheelchair scooter drone" speed="3.65" length="4.67" shape="1889.53,1039.70 1888.10,1039.86 1887.28,1039.51 1887.06,1038.65 1887.46,1037.26"/>
    </edge>
    <edge id=":1613087721_6" function="internal">
        <lane id=":1613087721_6_0" index="0" disallow="tram rail_urban rail rail_electric rail_fast ship container cable_car subway aircraft wheelchair scooter drone" speed="8.79" length="12.70" shape="1873.92,1038.25 1876.31,1038.98 1879.01,1038.66 1882.04,1037.27 1885.39,1034.82"/>
    </edge>
    <edge id=":1613087721_7" function="internal">
        <lane id=":1613087721_7_0" index="0" disallow="tram rail_urban rail rail_electric rail_fast ship container cable_car subway aircraft wheelchair scooter drone" speed="13.89" length="21.31" shape="1873.92,1038.25 1892.02,1049.50"/>
    </edge>
    <edge id=":1613087721_8" function="internal">
        <lane id=":1613087721_8_0" index="0" disallow="tram rail_urban rail rail_electric rail_fast ship container cable_car subway aircraft wheelchair scooter drone" speed="3.65" length="4.67" shape="1873.92,1038.25 1874.57,1039.54 1874.52,1040.43 1873.78,1040.93 1872.34,1041.04"/>
    </edge>
    <edge id=":1692612369_0" function="internal">
        <lane id=":1692612369_0_0" index="0" disallow="tram rail_urban rail rail_electric rail_fast ship container cable_car subway aircraft wheelchair scooter drone" speed="22.22" length="0.29" width="3.00" shape="1150.08,996.14 1149.90,996.37"/>
        <lane id=":1692612369_0_1" index="1" disallow="tram rail_urban rail rail_electric rail_fast ship container cable_car subway aircraft wheelchair scooter drone" speed="22.22" length="0.29" width="3.00" shape="1147.69,994.32 1147.51,994.56"/>
    </edge>
    <edge id=":1692612369_2" function="internal">
        <lane id=":1692612369_2_0" index="0" disallow="tram rail_urban rail rail_electric rail_fast ship container cable_car subway aircraft wheelchair scooter drone" speed="22.22" length="0.31" width="3.00" shape="1142.74,990.93 1142.93,990.68"/>
        <lane id=":1692612369_2_1" index="1" disallow="tram rail_urban rail rail_electric rail_fast ship container cable_car subway aircraft wheelchair scooter drone" speed="22.22" length="0.31" width="3.00" shape="1145.12,992.74 1145.31,992.50"/>
    </edge>
    <edge id=":1692612437_0" function="internal">
        <lane id=":1692612437_0_0" index="0" disallow="tram rail_urban rail rail_electric rail_fast ship container cable_car subway aircraft wheelchair scooter drone" speed="6.96" length="10.29" width="3.75" shape="1011.28,467.48 1008.55,465.88 1006.12,465.36 1003.99,465.92 1002.17,467.54"/>
        <lane id=":1692612437_0_1" index="1" disallow="tram rail_urban rail rail_electric rail_fast ship container cable_car subway aircraft wheelchair scooter drone" speed="8.48" length="15.81" width="3.75" shape="1013.18,464.90 1009.04,462.51 1005.32,461.77 1002.05,462.68 999.20,465.25"/>
        <lane id=":1692612437_0_2" index="2" disallow="tram rail_urban rail rail_electric rail_fast ship container cable_car subway aircraft wheelchair scooter drone" speed="9.25" length="18.99" width="3.75" shape="1013.18,464.90 1007.72,461.53 1003.07,460.08 999.25,460.55 996.24,462.95"/>
    </edge>
    <edge id=":1692612437_3" function="internal">
        <lane id=":1692612437_3_0" index="0" disallow="tram rail_urban rail rail_electric rail_fast ship container cable_car subway aircraft wheelchair scooter drone" speed="27.78" length="14.08" width="3.75" shape="1010.72,456.23 1002.17,467.54"/>
        <lane id=":1692612437_3_1" index="1" disallow="tram rail_urban rail rail_electric rail_fast ship container cable_car subway aircraft wheelchair scooter drone" speed="27.78" length="14.08" width="3.75" shape="1007.72,453.99 999.20,465.25"/>
        <lane id=":1692612437_3_2" index="2" disallow="tram rail_urban rail rail_electric rail_fast ship container cable_car subway aircraft wheelchair scooter drone" speed="27.78" length="14.08" width="3.75" shape="1004.71,451.76 996.24,462.95"/>
        <lane id=":1692612437_3_3" index="3" disallow="tram rail_urban rail rail_electric rail_fast ship container cable_car subway aircraft wheelchair scooter drone" speed="27.78" length="14.08" width="3.75" shape="1001.70,449.52 993.27,460.66"/>
    </edge>
    <edge id=":1692612438_0" function="internal">
        <lane id=":1692612438_0_0" index="0" disallow="tram rail_urban rail rail_electric rail_fast ship container cable_car subway aircraft wheelchair scooter drone" speed="6.91" length="9.77" shape="1024.13,439.62 1022.93,441.81 1022.81,443.93 1023.77,446.01 1025.81,448.03"/>
        <lane id=":1692612438_0_1" index="1" disallow="tram rail_urban rail rail_electric rail_fast ship container cable_car subway aircraft wheelchair scooter drone" speed="7.66" length="12.41" shape="1024.13,439.62 1022.07,442.91 1021.33,445.82 1021.93,448.37 1023.85,450.56"/>
    </edge>
    <edge id=":1692612438_2" function="internal">
        <lane id=":1692612438_2_0" index="0" disallow="tram rail_urban rail rail_electric rail_fast ship container cable_car subway aircraft wheelchair scooter drone" speed="27.78" length="14.70" width="3.75" shape="1024.13,439.62 1014.83,450.71"/>
        <lane id=":1692612438_2_1" index="1" disallow="tram rail_urban rail rail_electric rail_fast ship container cable_car subway aircraft wheelchair scooter drone" speed="27.78" length="14.70" width="3.75" shape="1020.20,436.53 1011.82,448.47"/>
        <lane id=":1692612438_2_2" index="2" disallow="tram rail_urban rail rail_electric rail_fast ship container cable_car subway aircraft wheelchair scooter drone" speed="27.78" length="14.70" width="3.75" shape="1016.27,433.44 1013.80,437.06 1012.48,439.79 1011.20,442.55 1008.82,446.23"/>
        <lane id=":1692612438_2_3" index="3" disallow="tram rail_urban rail rail_electric rail_fast ship container cable_car subway aircraft wheelchair scooter drone" speed="27.78" length="14.70" width="3.75" shape="1016.27,433.44 1013.32,436.71 1010.98,438.67 1008.67,440.65 1005.81,443.99"/>
    </edge>
    <edge id=":1692612475_0" function="internal">
        <lane id=":1692612475_0_0" index="0" disallow="tram rail_urban rail rail_electric rail_fast ship container cable_car subway aircraft wheelchair scooter drone" speed="3.90" length="2.58" shape="1759.66,203.31 1759.05,202.96 1758.47,202.90 1757.93,203.11 1757.42,203.61"/>
        <lane id=":1692612475_0_1" index="1" disallow="tram rail_urban rail rail_electric rail_fast ship container cable_car subway aircraft wheelchair scooter drone" speed="6.08" length="7.73" shape="1761.60,200.76 1759.75,199.73 1758.01,199.54 1756.39,200.18 1754.88,201.67"/>
    </edge>
    <edge id=":1692612475_2" function="internal">
        <lane id=":1692612475_2_0" index="0" disallow="tram rail_urban rail rail_electric rail_fast ship container cable_car subway aircraft wheelchair scooter drone" speed="8.96" length="18.03" shape="1749.79,197.79 1753.31,194.32 1757.10,192.81 1761.15,193.26 1765.47,195.66"/>
        <lane id=":1692612475_2_1" index="1" disallow="tram rail_urban rail rail_electric rail_fast ship container cable_car subway aircraft wheelchair scooter drone" speed="7.66" length="12.88" shape="1752.33,199.73 1754.85,197.25 1757.56,196.17 1760.45,196.49 1763.53,198.21"/>
    </edge>
    <edge id=":1696142597_0" function="internal">
        <lane id=":1696142597_0_0" index="0" disallow="tram rail_urban rail rail_electric rail_fast ship container cable_car subway aircraft wheelchair scooter drone" speed="11.09" length="8.86" shape="1114.05,550.74 1113.19,548.38 1112.01,547.06 1110.39,546.02 1108.20,544.52"/>