<?xml version="1.0" encoding="UTF-8"?>

<!-- generated on 2025-06-03 06:57:38 by Eclipse SUMO netedit Version 1.22.0
<neteditConfiguration xmlns:xsi="http://www.w3.org/2001/XMLSchema-instance" xsi:noNamespaceSchemaLocation="http://sumo.dlr.de/xsd/neteditConfiguration.xsd">

    <input>
        <sumo-net-file value=".\nghia_region\nghia_region.net.xml"/>
    </input>

    <output>
        <output-file value=".\nghia_region\nghia_region.net.xml"/>
    </output>

    <processing>
        <geometry.min-radius.fix.railways value="false"/>
        <geometry.max-grade.fix value="false"/>
        <offset.disable-normalization value="true"/>
        <lefthand value="0"/>
    </processing>

    <junctions>
        <no-turnarounds value="true"/>
        <junctions.corner-detail value="5"/>
        <junctions.limit-turn-speed value="5.50"/>
        <rectangular-lane-cut value="0"/>
    </junctions>

    <pedestrian>
        <walkingareas value="0"/>
    </pedestrian>

</neteditConfiguration>
-->

<net version="1.20" junctionCornerDetail="5" limitTurnSpeed="5.50" xmlns:xsi="http://www.w3.org/2001/XMLSchema-instance" xsi:noNamespaceSchemaLocation="http://sumo.dlr.de/xsd/net_file.xsd">

    <location netOffset="-580589.11,-2323475.94" convBoundary="0.00,30.96,2378.07,2232.72" origBoundary="105.772785,21.007881,105.799128,21.033919" projParameter="+proj=utm +zone=48 +ellps=WGS84 +datum=WGS84 +units=m +no_defs"/>

    <type id="highway.motorway" priority="14" numLanes="2" speed="39.44" allow="private emergency authority army vip passenger hov taxi bus coach delivery truck trailer motorcycle evehicle custom1 custom2" oneway="1"/>
    <type id="highway.primary" priority="12" numLanes="2" speed="27.78" disallow="tram rail_urban rail rail_electric rail_fast ship container cable_car subway aircraft wheelchair scooter drone" oneway="0"/>
    <type id="highway.primary_link" priority="7" numLanes="1" speed="22.22" disallow="tram rail_urban rail rail_electric rail_fast ship container cable_car subway aircraft wheelchair scooter drone" oneway="0"/>
    <type id="highway.secondary" priority="11" numLanes="1" speed="27.78" disallow="tram rail_urban rail rail_electric rail_fast ship container cable_car subway aircraft wheelchair scooter drone" oneway="0"/>
    <type id="highway.secondary_link" priority="6" numLanes="1" speed="22.22" disallow="tram rail_urban rail rail_electric rail_fast ship container cable_car subway aircraft wheelchair scooter drone" oneway="0"/>
    <type id="highway.tertiary" priority="10" numLanes="1" speed="22.22" disallow="tram rail_urban rail rail_electric rail_fast ship container cable_car subway aircraft wheelchair scooter drone" oneway="0"/>

    <edge id=":10202001771_0" function="internal">
        <lane id=":10202001771_0_0" index="0" disallow="tram rail_urban rail rail_electric rail_fast ship container cable_car subway aircraft wheelchair scooter drone" speed="13.90" length="15.12" shape="1042.47,1067.88 1046.49,1070.34 1049.94,1071.48 1053.21,1071.74 1056.70,1071.54"/>
    </edge>
    <edge id=":10202001771_1" function="internal">
        <lane id=":10202001771_1_0" index="0" disallow="tram rail_urban rail rail_electric rail_fast ship container cable_car subway aircraft wheelchair scooter drone" speed="27.78" length="14.54" width="5.33" shape="1042.47,1067.88 1054.01,1076.92"/>
        <lane id=":10202001771_1_1" index="1" disallow="tram rail_urban rail rail_electric rail_fast ship container cable_car subway aircraft wheelchair scooter drone" speed="27.78" length="14.54" width="5.33" shape="1039.32,1072.18 1050.76,1081.14"/>
        <lane id=":10202001771_1_2" index="2" disallow="tram rail_urban rail rail_electric rail_fast ship container cable_car subway aircraft wheelchair scooter drone" speed="27.78" length="14.54" width="5.33" shape="1036.16,1076.48 1047.51,1085.37"/>
    </edge>
    <edge id=":10202001781_0" function="internal">
        <lane id=":10202001781_0_0" index="0" disallow="tram rail_urban rail rail_electric rail_fast ship container cable_car subway aircraft wheelchair scooter drone" speed="12.28" length="9.29" width="5.33" shape="1095.44,1102.57 1096.01,1105.30 1096.16,1107.36 1096.72,1109.13 1098.52,1110.97"/>
    </edge>
    <edge id=":10202001781_1" function="internal">
        <lane id=":10202001781_1_0" index="0" disallow="tram rail_urban rail rail_electric rail_fast ship container cable_car subway aircraft wheelchair scooter drone" speed="27.78" length="8.72" width="5.33" shape="1091.60,1105.72 1098.52,1110.97"/>
        <lane id=":10202001781_1_1" index="1" disallow="tram rail_urban rail rail_electric rail_fast ship container cable_car subway aircraft wheelchair scooter drone" speed="27.78" length="8.72" width="5.33" shape="1088.39,1109.99 1095.35,1115.26"/>
        <lane id=":10202001781_1_2" index="2" disallow="tram rail_urban rail rail_electric rail_fast ship container cable_car subway aircraft wheelchair scooter drone" speed="27.78" length="8.72" width="5.33" shape="1085.19,1114.26 1092.17,1119.55"/>
    </edge>
    <edge id=":10203920310_0" function="internal">
        <lane id=":10203920310_0_0" index="0" disallow="tram rail_urban rail rail_electric rail_fast ship container cable_car subway aircraft wheelchair scooter drone" speed="11.47" length="9.37" shape="1549.58,1489.03 1547.35,1487.57 1545.52,1487.14 1543.50,1487.23 1540.70,1487.34"/>
    </edge>
    <edge id=":10203920310_1" function="internal">
        <lane id=":10203920310_1_0" index="0" disallow="tram rail_urban rail rail_electric rail_fast ship container cable_car subway aircraft wheelchair scooter drone" speed="27.78" length="5.37" shape="1549.58,1489.03 1545.33,1486.01"/>
        <lane id=":10203920310_1_1" index="1" disallow="tram rail_urban rail rail_electric rail_fast ship container cable_car subway aircraft wheelchair scooter drone" speed="27.78" length="5.37" shape="1551.60,1486.55 1547.27,1483.47"/>
        <lane id=":10203920310_1_2" index="2" disallow="tram rail_urban rail rail_electric rail_fast ship container cable_car subway aircraft wheelchair scooter drone" speed="27.78" length="5.37" shape="1553.63,1484.07 1549.21,1480.92"/>
        <lane id=":10203920310_1_3" index="3" disallow="tram rail_urban rail rail_electric rail_fast ship container cable_car subway aircraft wheelchair scooter drone" speed="27.78" length="5.37" shape="1555.65,1481.59 1551.15,1478.38"/>
    </edge>
    <edge id=":10203920324_0" function="internal">
        <lane id=":10203920324_0_0" index="0" disallow="tram rail_urban rail rail_electric rail_fast ship container cable_car subway aircraft wheelchair scooter drone" speed="27.78" length="14.23" shape="1471.84,1493.10 1478.79,1480.75"/>
        <lane id=":10203920324_0_1" index="1" disallow="tram rail_urban rail rail_electric rail_fast ship container cable_car subway aircraft wheelchair scooter drone" speed="27.78" length="14.23" shape="1474.62,1494.69 1481.60,1482.29"/>
        <lane id=":10203920324_0_2" index="2" disallow="tram rail_urban rail rail_electric rail_fast ship container cable_car subway aircraft wheelchair scooter drone" speed="27.78" length="14.23" shape="1477.40,1496.27 1484.41,1483.82"/>
    </edge>
    <edge id=":10203920324_3" function="internal">
        <lane id=":10203920324_3_0" index="0" disallow="tram rail_urban rail rail_electric rail_fast ship container cable_car subway aircraft wheelchair scooter drone" speed="7.01" length="10.29" shape="1477.40,1496.27 1479.60,1493.12 1481.59,1491.10 1483.38,1490.22 1484.98,1490.48"/>
        <lane id=":10203920324_3_1" index="1" disallow="tram rail_urban rail rail_electric rail_fast ship container cable_car subway aircraft wheelchair scooter drone" speed="6.08" length="7.50" shape="1477.40,1496.27 1478.87,1494.31 1480.36,1493.16 1481.88,1492.82 1483.42,1493.28"/>
    </edge>
    <edge id=":10203920325_0" function="internal">
        <lane id=":10203920325_0_0" index="0" disallow="tram rail_urban rail rail_electric rail_fast ship container cable_car subway aircraft wheelchair scooter drone" speed="27.78" length="7.15" shape="1496.78,1490.72 1493.25,1496.94"/>
        <lane id=":10203920325_0_1" index="1" disallow="tram rail_urban rail rail_electric rail_fast ship container cable_car subway aircraft wheelchair scooter drone" speed="27.78" length="7.15" shape="1494.00,1489.14 1490.47,1495.36"/>
        <lane id=":10203920325_0_2" index="2" disallow="tram rail_urban rail rail_electric rail_fast ship container cable_car subway aircraft wheelchair scooter drone" speed="27.78" length="7.15" shape="1491.22,1487.56 1487.69,1493.78"/>
    </edge>
    <edge id=":10203920325_3" function="internal">
        <lane id=":10203920325_3_0" index="0" disallow="tram rail_urban rail rail_electric rail_fast ship container cable_car subway aircraft wheelchair scooter drone" speed="5.96" length="7.48" shape="1485.15,1490.58 1487.77,1492.15 1489.54,1493.47 1490.43,1494.54 1490.47,1495.36"/>
        <lane id=":10203920325_3_1" index="1" disallow="tram rail_urban rail rail_electric rail_fast ship container cable_car subway aircraft wheelchair scooter drone" speed="4.64" length="4.11" shape="1483.60,1493.37 1487.69,1493.78"/>
    </edge>
    <edge id=":10203920328_0" function="internal">
        <lane id=":10203920328_0_0" index="0" disallow="tram rail_urban rail rail_electric rail_fast ship container cable_car subway aircraft wheelchair scooter drone" speed="5.79" length="7.06" shape="1539.95,1396.15 1537.57,1394.46 1535.98,1393.10 1535.18,1392.05 1535.18,1391.32"/>
        <lane id=":10203920328_0_1" index="1" disallow="tram rail_urban rail rail_electric rail_fast ship container cable_car subway aircraft wheelchair scooter drone" speed="4.54" length="3.92" shape="1541.72,1393.48 1537.81,1393.15"/>
    </edge>
    <edge id=":10203920328_2" function="internal">
        <lane id=":10203920328_2_0" index="0" disallow="tram rail_urban rail rail_electric rail_fast ship container cable_car subway aircraft wheelchair scooter drone" speed="16.67" length="7.12" shape="1528.70,1395.67 1532.55,1389.49"/>
        <lane id=":10203920328_2_1" index="1" disallow="tram rail_urban rail rail_electric rail_fast ship container cable_car subway aircraft wheelchair scooter drone" speed="16.67" length="7.12" shape="1531.42,1397.36 1535.18,1391.32"/>
        <lane id=":10203920328_2_2" index="2" disallow="tram rail_urban rail rail_electric rail_fast ship container cable_car subway aircraft wheelchair scooter drone" speed="16.67" length="7.12" shape="1534.13,1399.06 1537.81,1393.15"/>
    </edge>
    <edge id=":10203920329_0" function="internal">
        <lane id=":10203920329_0_0" index="0" disallow="tram rail_urban rail rail_electric rail_fast ship container cable_car subway aircraft wheelchair scooter drone" speed="16.67" length="5.56" shape="1548.53,1401.49 1545.72,1406.23"/>
        <lane id=":10203920329_0_1" index="1" disallow="tram rail_urban rail rail_electric rail_fast ship container cable_car subway aircraft wheelchair scooter drone" speed="16.67" length="5.56" shape="1545.81,1399.81 1542.97,1404.59"/>
        <lane id=":10203920329_0_2" index="2" disallow="tram rail_urban rail rail_electric rail_fast ship container cable_car subway aircraft wheelchair scooter drone" speed="16.67" length="5.56" shape="1543.08,1398.13 1540.22,1402.95"/>
    </edge>
    <edge id=":10203920329_3" function="internal">
        <lane id=":10203920329_3_0" index="0" disallow="tram rail_urban rail rail_electric rail_fast ship container cable_car subway aircraft wheelchair scooter drone" speed="4.43" length="3.73" shape="1543.08,1398.13 1542.51,1398.28 1541.71,1397.72 1540.86,1396.90 1540.12,1396.26"/>
        <lane id=":10203920329_3_1" index="1" disallow="tram rail_urban rail rail_electric rail_fast ship container cable_car subway aircraft wheelchair scooter drone" speed="4.86" length="4.70" shape="1543.08,1398.13 1541.88,1393.59"/>
    </edge>
    <edge id=":1219243660_0" function="internal">
        <lane id=":1219243660_0_0" index="0" disallow="tram rail_urban rail rail_electric rail_fast ship container cable_car subway aircraft wheelchair scooter drone" speed="8.40" length="15.55" shape="1766.24,1628.34 1767.85,1630.65 1767.90,1633.71 1766.38,1637.55 1763.29,1642.15"/>
    </edge>
    <edge id=":1219243660_1" function="internal">
        <lane id=":1219243660_1_0" index="0" disallow="tram rail_urban rail rail_electric rail_fast ship container cable_car subway aircraft wheelchair scooter drone" speed="3.65" length="4.67" shape="1760.76,1640.19 1762.13,1639.74 1763.01,1639.91 1763.39,1640.72 1763.29,1642.15"/>
    </edge>
    <edge id=":1220930867_0" function="internal">
        <lane id=":1220930867_0_0" index="0" disallow="tram rail_urban rail rail_electric rail_fast ship container cable_car subway aircraft wheelchair scooter drone" speed="8.36" length="15.86" shape="1761.10,1644.98 1757.34,1649.15 1753.93,1651.53 1750.86,1652.14 1748.14,1650.95"/>
        <lane id=":1220930867_0_1" index="1" disallow="tram rail_urban rail rail_electric rail_fast ship container cable_car subway aircraft wheelchair scooter drone" speed="7.62" length="13.00" shape="1761.10,1644.98 1758.20,1648.05 1755.42,1649.65 1752.74,1649.79 1750.17,1648.47"/>
        <lane id=":1220930867_0_2" index="2" disallow="tram rail_urban rail rail_electric rail_fast ship container cable_car subway aircraft wheelchair scooter drone" speed="6.84" length="10.28" shape="1761.10,1644.98 1759.06,1646.94 1756.90,1647.77 1754.61,1647.45 1752.19,1645.99"/>
        <lane id=":1220930867_0_3" index="3" disallow="tram rail_urban rail rail_electric rail_fast ship container cable_car subway aircraft wheelchair scooter drone" speed="6.06" length="7.82" shape="1761.10,1644.98 1759.93,1645.84 1758.39,1645.88 1756.48,1645.11 1754.21,1643.51"/>
    </edge>
    <edge id=":1220930867_4" function="internal">
        <lane id=":1220930867_4_0" index="0" disallow="tram rail_urban rail rail_electric rail_fast ship container cable_car subway aircraft wheelchair scooter drone" speed="3.65" length="4.67" shape="1761.10,1644.98 1759.73,1645.44 1758.85,1645.26 1758.46,1644.45 1758.57,1643.02"/>
    </edge>
    <edge id=":1475295085_0" function="internal">
        <lane id=":1475295085_0_0" index="0" disallow="tram rail_urban rail rail_electric rail_fast ship container cable_car subway aircraft wheelchair scooter drone" speed="27.78" length="8.94" width="5.00" shape="348.02,1642.89 348.68,1651.50"/>
        <lane id=":1475295085_0_1" index="1" disallow="tram rail_urban rail rail_electric rail_fast ship container cable_car subway aircraft wheelchair scooter drone" speed="27.78" length="8.94" width="5.00" shape="343.02,1643.11 343.71,1652.03"/>
        <lane id=":1475295085_0_2" index="2" disallow="tram rail_urban rail rail_electric rail_fast ship container cable_car subway aircraft wheelchair scooter drone" speed="27.78" length="8.94" width="5.00" shape="338.03,1643.34 338.73,1652.56"/>
    </edge>
    <edge id=":1475295085_3" function="internal">
        <lane id=":1475295085_3_0" index="0" disallow="tram rail_urban rail rail_electric rail_fast ship container cable_car subway aircraft wheelchair scooter drone" speed="6.55" length="8.29" shape="338.03,1643.34 337.91,1646.07 337.27,1648.07 336.12,1649.34 334.45,1649.87"/>
    </edge>
    <edge id=":1475295085_4" function="internal">
        <lane id=":1475295085_4_0" index="0" disallow="tram rail_urban rail rail_electric rail_fast ship container cable_car subway aircraft wheelchair scooter drone" speed="7.54" length="12.30" width="5.00" shape="334.17,1646.69 338.10,1646.73 340.99,1647.63 342.86,1649.40 343.71,1652.03"/>
        <lane id=":1475295085_4_1" index="1" disallow="tram rail_urban rail rail_electric rail_fast ship container cable_car subway aircraft wheelchair scooter drone" speed="6.31" length="8.33" width="5.00" shape="334.17,1646.69 335.92,1646.92 337.26,1647.98 338.20,1649.86 338.73,1652.56"/>
    </edge>
    <edge id=":1475295085_6" function="internal">
        <lane id=":1475295085_6_0" index="0" disallow="tram rail_urban rail rail_electric rail_fast ship container cable_car subway aircraft wheelchair scooter drone" speed="3.65" length="4.67" shape="334.17,1646.69 335.44,1647.38 335.91,1648.14 335.58,1648.97 334.45,1649.87"/>
    </edge>
    <edge id=":1475295086_0" function="internal">
        <lane id=":1475295086_0_0" index="0" disallow="tram rail_urban rail rail_electric rail_fast ship container cable_car subway aircraft wheelchair scooter drone" speed="27.78" length="9.47" width="5.00" shape="302.85,1655.82 302.03,1646.34"/>
        <lane id=":1475295086_0_1" index="1" disallow="tram rail_urban rail rail_electric rail_fast ship container cable_car subway aircraft wheelchair scooter drone" speed="27.78" length="9.47" width="5.00" shape="307.83,1655.37 307.01,1645.94"/>
        <lane id=":1475295086_0_2" index="2" disallow="tram rail_urban rail rail_electric rail_fast ship container cable_car subway aircraft wheelchair scooter drone" speed="27.78" length="9.47" width="5.00" shape="312.81,1654.91 311.99,1645.53"/>
    </edge>
    <edge id=":1475295086_3" function="internal">
        <lane id=":1475295086_3_0" index="0" disallow="tram rail_urban rail rail_electric rail_fast ship container cable_car subway aircraft wheelchair scooter drone" speed="6.49" length="8.41" shape="312.81,1654.91 312.81,1652.14 313.38,1650.12 314.53,1648.83 316.24,1648.28"/>
    </edge>
    <edge id=":1475295086_4" function="internal">
        <lane id=":1475295086_4_0" index="0" disallow="tram rail_urban rail rail_electric rail_fast ship container cable_car subway aircraft wheelchair scooter drone" speed="7.51" length="12.46" width="5.00" shape="316.53,1651.47 312.56,1651.42 309.65,1650.48 307.80,1648.65 307.01,1645.94"/>
        <lane id=":1475295086_4_1" index="1" disallow="tram rail_urban rail rail_electric rail_fast ship container cable_car subway aircraft wheelchair scooter drone" speed="6.29" length="8.41" width="5.00" shape="316.53,1651.47 314.74,1651.23 313.39,1650.16 312.47,1648.26 311.99,1645.53"/>
    </edge>
    <edge id=":1475295086_6" function="internal">
        <lane id=":1475295086_6_0" index="0" disallow="tram rail_urban rail rail_electric rail_fast ship container cable_car subway aircraft wheelchair scooter drone" speed="3.65" length="4.67" shape="316.53,1651.47 315.26,1650.78 314.79,1650.01 315.12,1649.18 316.24,1648.28"/>
    </edge>
    <edge id=":1613087721_0" function="internal">
        <lane id=":1613087721_0_0" index="0" disallow="tram rail_urban rail rail_electric rail_fast ship container cable_car subway aircraft wheelchair scooter drone" speed="13.89" length="21.08" shape="1890.24,1052.16 1872.34,1041.04"/>
    </edge>
    <edge id=":1613087721_1" function="internal">
        <lane id=":1613087721_1_0" index="0" disallow="tram rail_urban rail rail_electric rail_fast ship container cable_car subway aircraft wheelchair scooter drone" speed="8.29" length="18.57" shape="1890.24,1052.16 1885.80,1048.38 1883.86,1044.63 1884.41,1040.92 1887.46,1037.26"/>
    </edge>
    <edge id=":1613087721_2" function="internal">
        <lane id=":1613087721_2_0" index="0" disallow="tram rail_urban rail rail_electric rail_fast ship container cable_car subway aircraft wheelchair scooter drone" speed="3.65" length="4.67" shape="1890.24,1052.16 1889.69,1050.83 1889.80,1049.94 1890.58,1049.50 1892.02,1049.50"/>
    </edge>
    <edge id=":1613087721_3" function="internal">
        <lane id=":1613087721_3_0" index="0" disallow="tram rail_urban rail rail_electric rail_fast ship container cable_car subway aircraft wheelchair scooter drone" speed="5.99" length="9.08" shape="1891.60,1042.14 1889.88,1044.08 1889.37,1045.96 1890.09,1047.76 1892.02,1049.50"/>
    </edge>
    <edge id=":1613087721_4" function="internal">
        <lane id=":1613087721_4_0" index="0" disallow="tram rail_urban rail rail_electric rail_fast ship container cable_car subway aircraft wheelchair scooter drone" speed="11.06" length="20.55" shape="1891.60,1042.14 1887.80,1044.28 1883.32,1044.81 1878.17,1043.73 1872.34,1041.04"/>
    </edge>
    <edge id=":1613087721_5" function="internal">
        <lane id=":1613087721_5_0" index="0" disallow="tram rail_urban rail rail_electric rail_fast ship container cable_car subway aircraft wheelchair scooter drone" speed="3.65" length="4.67" shape="1889.53,1039.70 1888.10,1039.86 1887.28,1039.51 1887.06,1038.65 1887.46,1037.26"/>
    </edge>
    <edge id=":1613087721_6" function="internal">
        <lane id=":1613087721_6_0" index="0" disallow="tram rail_urban rail rail_electric rail_fast ship container cable_car subway aircraft wheelchair scooter drone" speed="8.79" length="12.70" shape="1873.92,1038.25 1876.31,1038.98 1879.01,1038.66 1882.04,1037.27 1885.39,1034.82"/>
    </edge>
    <edge id=":1613087721_7" function="internal">
        <lane id=":1613087721_7_0" index="0" disallow="tram rail_urban rail rail_electric rail_fast ship container cable_car subway aircraft wheelchair scooter drone" speed="13.89" length="21.31" shape="1873.92,1038.25 1892.02,1049.50"/>
    </edge>
    <edge id=":1613087721_8" function="internal">
        <lane id=":1613087721_8_0" index="0" disallow="tram rail_urban rail rail_electric rail_fast ship container cable_car subway aircraft wheelchair scooter drone" speed="3.65" length="4.67" shape="1873.92,1038.25 1874.57,1039.54 1874.52,1040.43 1873.78,1040.93 1872.34,1041.04"/>
    </edge>
    <edge id=":1692612369_0" function="internal">
        <lane id=":1692612369_0_0" index="0" disallow="tram rail_urban rail rail_electric rail_fast ship container cable_car subway aircraft wheelchair scooter drone" speed="22.22" length="8.80" shape="1152.65,993.27 1150.76,994.92 1148.96,995.47 1147.15,996.03 1145.27,997.68"/>
    </edge>
    <edge id=":1692612369_1" function="internal">
        <lane id=":1692612369_1_0" index="0" disallow="tram rail_urban rail rail_electric rail_fast ship container cable_car subway aircraft wheelchair scooter drone" speed="22.22" length="8.41" shape="1142.72,995.75 1143.81,993.48 1143.87,991.59 1143.93,989.70 1145.03,987.44"/>
        <lane id=":1692612369_1_1" index="1" disallow="tram rail_urban rail rail_electric rail_fast ship container cable_car subway aircraft wheelchair scooter drone" speed="22.22" length="8.41" shape="1142.72,995.75 1147.57,989.38"/>
    </edge>
    <edge id=":1692612437_0" function="internal">
        <lane id=":1692612437_0_0" index="0" disallow="tram rail_urban rail rail_electric rail_fast ship container cable_car subway aircraft wheelchair scooter drone" speed="6.80" length="9.88" width="5.00" shape="1009.66,467.74 1007.12,466.24 1004.83,465.81 1002.77,466.42 1000.96,468.09"/>
        <lane id=":1692612437_0_1" index="1" disallow="tram rail_urban rail rail_electric rail_fast ship container cable_car subway aircraft wheelchair scooter drone" speed="8.61" length="16.51" width="5.00" shape="1011.59,465.19 1007.21,462.54 1003.31,461.63 999.91,462.45 997.00,465.02"/>
    </edge>
    <edge id=":1692612437_2" function="internal">
        <lane id=":1692612437_2_0" index="0" disallow="tram rail_urban rail rail_electric rail_fast ship container cable_car subway aircraft wheelchair scooter drone" speed="27.78" length="14.67" width="5.00" shape="1010.07,456.87 1000.96,468.09"/>
        <lane id=":1692612437_2_1" index="1" disallow="tram rail_urban rail rail_electric rail_fast ship container cable_car subway aircraft wheelchair scooter drone" speed="27.78" length="14.67" width="5.00" shape="1006.26,453.64 997.00,465.02"/>
        <lane id=":1692612437_2_2" index="2" disallow="tram rail_urban rail rail_electric rail_fast ship container cable_car subway aircraft wheelchair scooter drone" speed="27.78" length="14.67" width="5.00" shape="1002.45,450.40 993.05,461.96"/>
    </edge>
    <edge id=":1692612438_0" function="internal">
        <lane id=":1692612438_0_0" index="0" disallow="tram rail_urban rail rail_electric rail_fast ship container cable_car subway aircraft wheelchair scooter drone" speed="6.91" length="9.77" shape="1024.26,439.72 1023.07,441.90 1022.95,444.03 1023.91,446.11 1025.95,448.13"/>
        <lane id=":1692612438_0_1" index="1" disallow="tram rail_urban rail rail_electric rail_fast ship container cable_car subway aircraft wheelchair scooter drone" speed="7.67" length="12.41" shape="1024.26,439.72 1022.21,443.01 1021.47,445.93 1022.07,448.48 1023.99,450.66"/>
    </edge>
    <edge id=":1692612438_2" function="internal">
        <lane id=":1692612438_2_0" index="0" disallow="tram rail_urban rail rail_electric rail_fast ship container cable_car subway aircraft wheelchair scooter drone" speed="27.78" length="14.10" width="5.00" shape="1024.26,439.72 1015.23,450.81"/>
        <lane id=":1692612438_2_1" index="1" disallow="tram rail_urban rail rail_electric rail_fast ship container cable_car subway aircraft wheelchair scooter drone" speed="27.78" length="14.10" width="5.00" shape="1020.32,436.64 1011.42,447.57"/>
        <lane id=":1692612438_2_2" index="2" disallow="tram rail_urban rail rail_electric rail_fast ship container cable_car subway aircraft wheelchair scooter drone" speed="27.78" length="14.10" width="5.00" shape="1016.39,433.56 1007.61,444.33"/>
    </edge>
    <edge id=":1692612475_0" function="internal">
        <lane id=":1692612475_0_0" index="0" disallow="tram rail_urban rail rail_electric rail_fast ship container cable_car subway aircraft wheelchair scooter drone" speed="3.90" length="2.58" shape="1759.66,203.31 1759.05,202.96 1758.47,202.90 1757.93,203.11 1757.42,203.61"/>
        <lane id=":1692612475_0_1" index="1" disallow="tram rail_urban rail rail_electric rail_fast ship container cable_car subway aircraft wheelchair scooter drone" speed="6.08" length="7.73" shape="1761.60,200.76 1759.75,199.73 1758.01,199.54 1756.39,200.18 1754.88,201.67"/>
    </edge>
    <edge id=":1692612475_2" function="internal">
        <lane id=":1692612475_2_0" index="0" disallow="tram rail_urban rail rail_electric rail_fast ship container cable_car subway aircraft wheelchair scooter drone" speed="8.96" length="18.03" shape="1749.79,197.79 1753.31,194.32 1757.10,192.81 1761.15,193.26 1765.47,195.66"/>
        <lane id=":1692612475_2_1" index="1" disallow="tram rail_urban rail rail_electric rail_fast ship container cable_car subway aircraft wheelchair scooter drone" speed="7.66" length="12.88" shape="1752.33,199.73 1754.85,197.25 1757.56,196.17 1760.45,196.49 1763.53,198.21"/>
    </edge>
    <edge id=":1696142597_0" function="internal">
        <lane id=":1696142597_0_0" index="0" disallow="tram rail_urban rail rail_electric rail_fast ship container cable_car subway aircraft wheelchair scooter drone" speed="11.09" length="8.86" shape="1114.05,550.74 1113.19,548.38 1112.01,547.06 1110.39,546.02 1108.20,544.52"/>
        <lane id=":1696142597_0_1" index="1" disallow="tram rail_urban rail rail_electric rail_fast ship container cable_car subway aircraft wheelchair scooter drone" speed="11.71" length="9.90" shape="1114.05,550.74 1113.51,547.83 1113.11,545.73 1112.21,543.96 1110.18,542.00"/>
    </edge>
    <edge id=":1696142597_2" function="internal">
        <lane id=":1696142597_2_0" index="0" disallow="tram rail_urban rail rail_electric rail_fast ship container cable_car subway aircraft wheelchair scooter drone" speed="11.86" length="10.15" shape="1114.05,550.74 1113.28,547.65 1112.92,545.43 1113.21,543.27 1114.41,540.41"/>
        <lane id=":1696142597_2_1" index="1" disallow="tram rail_urban rail rail_electric rail_fast ship container cable_car subway aircraft wheelchair scooter drone" speed="11.25" length="10.15" shape="1117.16,550.00 1116.52,547.24 1116.31,545.25 1116.69,543.32 1117.81,540.77"/>
    </edge>
    <edge id=":1696142599_0" function="internal">
        <lane id=":1696142599_0_0" index="0" disallow="tram rail_urban rail rail_electric rail_fast ship container cable_car subway aircraft wheelchair scooter drone" speed="10.12" length="9.88" shape="1123.89,524.04 1125.85,525.76 1127.26,527.04 1128.83,527.77 1131.27,527.85"/>
        <lane id=":1696142599_0_1" index="1" disallow="tram rail_urban rail rail_electric rail_fast ship container cable_car subway aircraft wheelchair scooter drone" speed="11.37" length="9.88" shape="1121.93,526.57 1124.46,528.70 1126.33,530.20 1128.41,531.00 1131.55,531.04"/>
    </edge>
    <edge id=":1696142599_2" function="internal">
        <lane id=":1696142599_2_0" index="0" disallow="tram rail_urban rail rail_electric rail_fast ship container cable_car subway aircraft wheelchair scooter drone" speed="12.39" length="10.17" shape="1121.46,531.08 1123.87,529.16 1125.86,528.33 1128.10,528.06 1131.27,527.85"/>
        <lane id=":1696142599_2_1" index="1" disallow="tram rail_urban rail rail_electric rail_fast ship container cable_car subway aircraft wheelchair scooter drone" speed="11.81" length="10.17" shape="1122.75,534.24 1124.92,532.46 1126.70,531.61 1128.70,531.27 1131.55,531.04"/>
    </edge>
    <edge id=":1696142601_0" function="internal">
        <lane id=":1696142601_0_0" index="0" disallow="tram rail_urban rail rail_electric rail_fast ship container cable_car subway aircraft wheelchair scooter drone" speed="14.43" length="9.07" shape="1149.81,541.18 1151.00,543.55 1152.14,544.99 1153.61,546.17 1155.79,547.76"/>
        <lane id=":1696142601_0_1" index="1" disallow="tram rail_urban rail rail_electric rail_fast ship container cable_car subway aircraft wheelchair scooter drone" speed="15.34" length="10.27" shape="1149.81,541.18 1150.73,544.11 1151.10,546.33 1151.83,548.26 1153.86,550.31"/>
    </edge>
    <edge id=":1696142601_2" function="internal">
        <lane id=":1696142601_2_0" index="0" disallow="tram rail_urban rail rail_electric rail_fast ship container cable_car subway aircraft wheelchair scooter drone" speed="10.30" length="11.49" shape="1149.81,541.18 1150.73,544.01 1150.99,546.81 1150.59,549.60 1149.52,552.36"/>