<?xml version="1.0" encoding="UTF-8"?>

<!-- generated on 2025-05-28 16:00:49 by Eclipse SUMO netedit Version 1.22.0
<neteditConfiguration xmlns:xsi="http://www.w3.org/2001/XMLSchema-instance" xsi:noNamespaceSchemaLocation="http://sumo.dlr.de/xsd/neteditConfiguration.xsd">

    <input>
        <sumo-net-file value=".\nghia_region.net.xml"/>
    </input>

    <output>
        <output-file value=".\nghia_region.net.xml"/>
    </output>

    <processing>
        <geometry.min-radius.fix.railways value="false"/>
        <geometry.max-grade.fix value="false"/>
        <offset.disable-normalization value="true"/>
        <lefthand value="0"/>
    </processing>

    <junctions>
        <no-turnarounds value="true"/>
        <junctions.corner-detail value="5"/>
        <junctions.limit-turn-speed value="5.50"/>
        <rectangular-lane-cut value="0"/>
    </junctions>

    <pedestrian>
        <walkingareas value="0"/>
    </pedestrian>

</neteditConfiguration>
-->

<net version="1.20" junctionCornerDetail="5" limitTurnSpeed="5.50" xmlns:xsi="http://www.w3.org/2001/XMLSchema-instance" xsi:noNamespaceSchemaLocation="http://sumo.dlr.de/xsd/net_file.xsd">

    <location netOffset="-580589.11,-2323475.94" convBoundary="0.00,0.00,2378.07,2234.25" origBoundary="105.772785,21.007881,105.799128,21.033919" projParameter="+proj=utm +zone=48 +ellps=WGS84 +datum=WGS84 +units=m +no_defs"/>

    <type id="highway.motorway" priority="14" numLanes="2" speed="39.44" allow="private emergency authority army vip passenger hov taxi bus coach delivery truck trailer motorcycle evehicle custom1 custom2" oneway="1"/>
    <type id="highway.primary" priority="12" numLanes="2" speed="27.78" disallow="tram rail_urban rail rail_electric rail_fast ship container cable_car subway aircraft wheelchair scooter drone" oneway="0"/>
    <type id="highway.primary_link" priority="7" numLanes="1" speed="22.22" disallow="tram rail_urban rail rail_electric rail_fast ship container cable_car subway aircraft wheelchair scooter drone" oneway="0"/>
    <type id="highway.secondary" priority="11" numLanes="1" speed="27.78" disallow="tram rail_urban rail rail_electric rail_fast ship container cable_car subway aircraft wheelchair scooter drone" oneway="0"/>
    <type id="highway.secondary_link" priority="6" numLanes="1" speed="22.22" disallow="tram rail_urban rail rail_electric rail_fast ship container cable_car subway aircraft wheelchair scooter drone" oneway="0"/>
    <type id="highway.steps" priority="1" numLanes="1" speed="1.39" allow="pedestrian" oneway="1" width="2.00"/>
    <type id="highway.tertiary" priority="10" numLanes="1" speed="22.22" disallow="tram rail_urban rail rail_electric rail_fast ship container cable_car subway aircraft wheelchair scooter drone" oneway="0"/>

    <edge id=":10053862879_0" function="internal">
        <lane id=":10053862879_0_0" index="0" disallow="tram rail_urban rail rail_electric rail_fast ship container cable_car subway aircraft wheelchair scooter drone" speed="27.78" length="0.30" shape="457.79,623.71 458.02,623.88"/>
        <lane id=":10053862879_0_1" index="1" disallow="tram rail_urban rail rail_electric rail_fast ship container cable_car subway aircraft wheelchair scooter drone" speed="27.78" length="0.30" shape="455.84,626.24 456.07,626.42"/>
        <lane id=":10053862879_0_2" index="2" disallow="tram rail_urban rail rail_electric rail_fast ship container cable_car subway aircraft wheelchair scooter drone" speed="27.78" length="0.30" shape="453.89,628.78 454.13,628.96"/>
        <lane id=":10053862879_0_3" index="3" disallow="tram rail_urban rail rail_electric rail_fast ship container cable_car subway aircraft wheelchair scooter drone" speed="27.78" length="0.30" shape="451.93,631.31 452.18,631.50"/>
    </edge>
    <edge id=":10197309017_0" function="internal">
        <lane id=":10197309017_0_0" index="0" disallow="tram rail_urban rail rail_electric rail_fast ship container cable_car subway aircraft wheelchair scooter drone" speed="22.22" length="0.25" shape="1674.83,308.26 1674.70,308.43"/>
        <lane id=":10197309017_0_1" index="1" disallow="tram rail_urban rail rail_electric rail_fast ship container cable_car subway aircraft wheelchair scooter drone" speed="22.22" length="0.25" shape="1672.32,306.27 1672.16,306.48"/>
    </edge>
    <edge id=":10197309017_2" function="internal">
        <lane id=":10197309017_2_0" index="0" disallow="tram rail_urban rail rail_electric rail_fast ship container cable_car subway aircraft wheelchair scooter drone" speed="22.22" length="0.33" shape="1667.09,302.58 1667.31,302.30"/>
        <lane id=":10197309017_2_1" index="1" disallow="tram rail_urban rail rail_electric rail_fast ship container cable_car subway aircraft wheelchair scooter drone" speed="22.22" length="0.33" shape="1669.62,304.53 1669.82,304.28"/>
    </edge>
    <edge id=":10198982859_0" function="internal">
        <lane id=":10198982859_0_0" index="0" disallow="tram rail_urban rail rail_electric rail_fast ship container cable_car subway aircraft wheelchair scooter drone" speed="22.22" length="0.30" shape="1534.28,491.22 1534.10,491.46"/>
        <lane id=":10198982859_0_1" index="1" disallow="tram rail_urban rail rail_electric rail_fast ship container cable_car subway aircraft wheelchair scooter drone" speed="22.22" length="0.30" shape="1531.73,489.29 1531.55,489.53"/>
    </edge>
    <edge id=":10198982859_2" function="internal">
        <lane id=":10198982859_2_0" index="0" disallow="tram rail_urban rail rail_electric rail_fast ship container cable_car subway aircraft wheelchair scooter drone" speed="22.22" length="0.30" shape="1526.44,485.66 1526.62,485.42"/>
        <lane id=":10198982859_2_1" index="1" disallow="tram rail_urban rail rail_electric rail_fast ship container cable_car subway aircraft wheelchair scooter drone" speed="22.22" length="0.30" shape="1528.99,487.59 1529.17,487.36"/>
    </edge>
    <edge id=":10199480378_0" function="internal">
        <lane id=":10199480378_0_0" index="0" disallow="tram rail_urban rail rail_electric rail_fast ship container cable_car subway aircraft wheelchair scooter drone" speed="22.22" length="0.30" shape="1117.07,518.75 1117.31,518.94"/>
        <lane id=":10199480378_0_1" index="1" disallow="tram rail_urban rail rail_electric rail_fast ship container cable_car subway aircraft wheelchair scooter drone" speed="22.22" length="0.30" shape="1115.11,521.28 1115.35,521.47"/>
    </edge>
    <edge id=":10199480379_0" function="internal">
        <lane id=":10199480379_0_0" index="0" disallow="tram rail_urban rail rail_electric rail_fast ship container cable_car subway aircraft wheelchair scooter drone" speed="22.22" length="0.30" shape="1101.09,538.93 1100.85,538.75"/>
        <lane id=":10199480379_0_1" index="1" disallow="tram rail_urban rail rail_electric rail_fast ship container cable_car subway aircraft wheelchair scooter drone" speed="22.22" length="0.30" shape="1103.07,536.41 1102.83,536.23"/>
    </edge>
    <edge id=":10199480382_0" function="internal">
        <lane id=":10199480382_0_0" index="0" disallow="tram rail_urban rail rail_electric rail_fast ship container cable_car subway aircraft wheelchair scooter drone" speed="22.22" length="0.30" shape="1048.16,465.33 1048.40,465.52"/>
        <lane id=":10199480382_0_1" index="1" disallow="tram rail_urban rail rail_electric rail_fast ship container cable_car subway aircraft wheelchair scooter drone" speed="22.22" length="0.30" shape="1046.20,467.86 1046.44,468.05"/>
    </edge>
    <edge id=":10199511728_0" function="internal">
        <lane id=":10199511728_0_0" index="0" disallow="tram rail_urban rail rail_electric rail_fast ship container cable_car subway aircraft wheelchair scooter drone" speed="22.22" length="0.30" shape="1160.94,551.65 1161.18,551.84"/>
        <lane id=":10199511728_0_1" index="1" disallow="tram rail_urban rail rail_electric rail_fast ship container cable_car subway aircraft wheelchair scooter drone" speed="22.22" length="0.30" shape="1159.01,554.21 1159.23,554.38"/>
    </edge>
    <edge id=":10199511729_0" function="internal">
        <lane id=":10199511729_0_0" index="0" disallow="tram rail_urban rail rail_electric rail_fast ship container cable_car subway aircraft wheelchair scooter drone" speed="22.22" length="0.30" shape="1146.00,571.91 1145.76,571.73"/>
        <lane id=":10199511729_0_1" index="1" disallow="tram rail_urban rail rail_electric rail_fast ship container cable_car subway aircraft wheelchair scooter drone" speed="22.22" length="0.30" shape="1147.94,569.37 1147.70,569.19"/>
    </edge>
    <edge id=":10199511906_0" function="internal">
        <lane id=":10199511906_0_0" index="0" disallow="tram rail_urban rail rail_electric rail_fast ship container cable_car subway aircraft wheelchair scooter drone" speed="22.22" length="0.29" shape="1378.94,714.36 1379.20,714.54"/>
        <lane id=":10199511906_0_1" index="1" disallow="tram rail_urban rail rail_electric rail_fast ship container cable_car subway aircraft wheelchair scooter drone" speed="22.22" length="0.29" shape="1377.17,717.03 1377.40,717.19"/>
    </edge>
    <edge id=":10199511936_0" function="internal">
        <lane id=":10199511936_0_0" index="0" disallow="tram rail_urban rail rail_electric rail_fast ship container cable_car subway aircraft wheelchair scooter drone" speed="22.22" length="0.29" shape="1496.32,823.38 1496.06,823.21"/>
        <lane id=":10199511936_0_1" index="1" disallow="tram rail_urban rail rail_electric rail_fast ship container cable_car subway aircraft wheelchair scooter drone" speed="22.22" length="0.29" shape="1498.02,820.67 1497.80,820.53"/>
    </edge>
    <edge id=":10202001771_0" function="internal">
        <lane id=":10202001771_0_0" index="0" disallow="tram rail_urban rail rail_electric rail_fast ship container cable_car subway aircraft wheelchair scooter drone" speed="20.84" length="14.98" shape="1035.69,1065.52 1039.67,1067.99 1043.05,1069.16 1046.25,1069.68 1049.68,1070.19"/>
    </edge>
    <edge id=":10202001771_1" function="internal">
        <lane id=":10202001771_1_0" index="0" disallow="tram rail_urban rail rail_electric rail_fast ship container cable_car subway aircraft wheelchair scooter drone" speed="27.78" length="15.04" shape="1035.69,1065.52 1047.64,1074.71"/>
        <lane id=":10202001771_1_1" index="1" disallow="tram rail_urban rail rail_electric rail_fast ship container cable_car subway aircraft wheelchair scooter drone" speed="27.78" length="15.04" shape="1033.76,1068.08 1045.69,1077.24"/>
        <lane id=":10202001771_1_2" index="2" disallow="tram rail_urban rail rail_electric rail_fast ship container cable_car subway aircraft wheelchair scooter drone" speed="27.78" length="15.04" shape="1031.84,1070.63 1043.74,1079.78"/>
    </edge>
    <edge id=":10202001781_0" function="internal">
        <lane id=":10202001781_0_0" index="0" disallow="tram rail_urban rail rail_electric rail_fast ship container cable_car subway aircraft wheelchair scooter drone" speed="13.67" length="9.25" shape="1097.45,1108.04 1098.33,1110.67 1098.88,1112.57 1099.79,1114.19 1101.74,1115.99"/>
    </edge>
    <edge id=":10202001781_1" function="internal">
        <lane id=":10202001781_1_0" index="0" disallow="tram rail_urban rail rail_electric rail_fast ship container cable_car subway aircraft wheelchair scooter drone" speed="27.78" length="9.25" shape="1094.37,1110.40 1101.74,1115.99"/>
        <lane id=":10202001781_1_1" index="1" disallow="tram rail_urban rail rail_electric rail_fast ship container cable_car subway aircraft wheelchair scooter drone" speed="27.78" length="9.25" shape="1092.44,1112.96 1099.81,1118.54"/>
        <lane id=":10202001781_1_2" index="2" disallow="tram rail_urban rail rail_electric rail_fast ship container cable_car subway aircraft wheelchair scooter drone" speed="27.78" length="9.25" shape="1090.51,1115.51 1097.88,1121.10"/>
    </edge>
    <edge id=":10202001831_0" function="internal">
        <lane id=":10202001831_0_0" index="0" disallow="tram rail_urban rail rail_electric rail_fast ship container cable_car subway aircraft wheelchair scooter drone" speed="22.22" length="0.30" shape="1231.68,890.73 1231.50,890.98"/>
        <lane id=":10202001831_0_1" index="1" disallow="tram rail_urban rail rail_electric rail_fast ship container cable_car subway aircraft wheelchair scooter drone" speed="22.22" length="0.30" shape="1229.13,888.80 1228.95,889.04"/>
    </edge>
    <edge id=":10202001831_2" function="internal">
        <lane id=":10202001831_2_0" index="0" disallow="tram rail_urban rail rail_electric rail_fast ship container cable_car subway aircraft wheelchair scooter drone" speed="22.22" length="0.30" shape="1223.86,885.16 1224.04,884.93"/>
        <lane id=":10202001831_2_1" index="1" disallow="tram rail_urban rail rail_electric rail_fast ship container cable_car subway aircraft wheelchair scooter drone" speed="22.22" length="0.30" shape="1226.41,887.10 1226.59,886.86"/>
    </edge>
    <edge id=":10202014413_0" function="internal">
        <lane id=":10202014413_0_0" index="0" disallow="tram rail_urban rail rail_electric rail_fast ship container cable_car subway aircraft wheelchair scooter drone" speed="22.22" length="0.31" shape="1129.66,1018.24 1129.47,1018.49"/>
    </edge>
    <edge id=":10202014413_1" function="internal">
        <lane id=":10202014413_1_0" index="0" disallow="tram rail_urban rail rail_electric rail_fast ship container cable_car subway aircraft wheelchair scooter drone" speed="22.22" length="0.28" shape="1126.94,1016.53 1127.11,1016.31"/>
    </edge>
    <edge id=":10202060520_0" function="internal">
        <lane id=":10202060520_0_0" index="0" disallow="tram rail_urban rail rail_electric rail_fast ship container cable_car subway aircraft wheelchair scooter drone" speed="27.78" length="0.30" shape="1043.69,1102.00 1043.47,1101.84"/>
        <lane id=":10202060520_0_1" index="1" disallow="tram rail_urban rail rail_electric rail_fast ship container cable_car subway aircraft wheelchair scooter drone" speed="27.78" length="0.30" shape="1045.60,1099.43 1045.36,1099.25"/>
        <lane id=":10202060520_0_2" index="2" disallow="tram rail_urban rail rail_electric rail_fast ship container cable_car subway aircraft wheelchair scooter drone" speed="27.78" length="0.30" shape="1047.51,1096.86 1047.25,1096.67"/>
    </edge>
    <edge id=":10202060522_0" function="internal">
        <lane id=":10202060522_0_0" index="0" disallow="tram rail_urban rail rail_electric rail_fast ship container cable_car subway aircraft wheelchair scooter drone" speed="27.78" length="0.29" shape="1058.13,1082.78 1058.42,1083.01"/>
        <lane id=":10202060522_0_1" index="1" disallow="tram rail_urban rail rail_electric rail_fast ship container cable_car subway aircraft wheelchair scooter drone" speed="27.78" length="0.29" shape="1056.17,1085.31 1056.40,1085.49"/>
        <lane id=":10202060522_0_2" index="2" disallow="tram rail_urban rail rail_electric rail_fast ship container cable_car subway aircraft wheelchair scooter drone" speed="27.78" length="0.29" shape="1054.22,1087.85 1054.38,1087.97"/>
    </edge>
    <edge id=":10202060524_0" function="internal">
        <lane id=":10202060524_0_0" index="0" disallow="tram rail_urban rail rail_electric rail_fast ship container cable_car subway aircraft wheelchair scooter drone" speed="22.22" length="0.19" shape="1076.46,1086.64 1076.35,1086.79"/>
    </edge>
    <edge id=":10202060524_1" function="internal">
        <lane id=":10202060524_1_0" index="0" disallow="tram rail_urban rail rail_electric rail_fast ship container cable_car subway aircraft wheelchair scooter drone" speed="22.22" length="0.30" shape="1073.77,1084.90 1073.95,1084.67"/>
    </edge>
    <edge id=":10202060525_0" function="internal">
        <lane id=":10202060525_0_0" index="0" disallow="tram rail_urban rail rail_electric rail_fast ship container cable_car subway aircraft wheelchair scooter drone" speed="27.78" length="0.27" shape="1069.14,1120.94 1068.99,1120.83"/>
        <lane id=":10202060525_0_1" index="1" disallow="tram rail_urban rail rail_electric rail_fast ship container cable_car subway aircraft wheelchair scooter drone" speed="27.78" length="0.27" shape="1071.12,1118.42 1070.90,1118.26"/>
        <lane id=":10202060525_0_2" index="2" disallow="tram rail_urban rail rail_electric rail_fast ship container cable_car subway aircraft wheelchair scooter drone" speed="27.78" length="0.27" shape="1073.09,1115.90 1072.81,1115.69"/>
    </edge>
    <edge id=":10202060526_0" function="internal">
        <lane id=":10202060526_0_0" index="0" disallow="tram rail_urban rail rail_electric rail_fast ship container cable_car subway aircraft wheelchair scooter drone" speed="27.78" length="0.27" shape="1083.16,1101.92 1083.44,1102.13"/>
        <lane id=":10202060526_0_1" index="1" disallow="tram rail_urban rail rail_electric rail_fast ship container cable_car subway aircraft wheelchair scooter drone" speed="27.78" length="0.27" shape="1081.29,1104.52 1081.51,1104.68"/>
        <lane id=":10202060526_0_2" index="2" disallow="tram rail_urban rail rail_electric rail_fast ship container cable_car subway aircraft wheelchair scooter drone" speed="27.78" length="0.27" shape="1079.42,1107.12 1079.58,1107.23"/>
    </edge>
    <edge id=":10202060528_0" function="internal">
        <lane id=":10202060528_0_0" index="0" disallow="tram rail_urban rail rail_electric rail_fast ship container cable_car subway aircraft wheelchair scooter drone" speed="22.22" length="0.30" shape="1093.64,1094.61 1093.68,1094.91"/>
    </edge>
    <edge id=":10203920310_0" function="internal">
        <lane id=":10203920310_0_0" index="0" disallow="tram rail_urban rail rail_electric rail_fast ship container cable_car subway aircraft wheelchair scooter drone" speed="10.89" length="8.42" shape="1549.58,1489.03 1547.58,1487.69 1545.95,1487.25 1544.14,1487.28 1541.63,1487.35"/>
    </edge>
    <edge id=":10203920310_1" function="internal">
        <lane id=":10203920310_1_0" index="0" disallow="tram rail_urban rail rail_electric rail_fast ship container cable_car subway aircraft wheelchair scooter drone" speed="27.78" length="5.03" shape="1549.58,1489.03 1545.72,1485.72"/>
        <lane id=":10203920310_1_1" index="1" disallow="tram rail_urban rail rail_electric rail_fast ship container cable_car subway aircraft wheelchair scooter drone" speed="27.78" length="5.03" shape="1551.60,1486.55 1547.77,1483.26"/>
        <lane id=":10203920310_1_2" index="2" disallow="tram rail_urban rail rail_electric rail_fast ship container cable_car subway aircraft wheelchair scooter drone" speed="27.78" length="5.03" shape="1553.63,1484.07 1549.82,1480.81"/>
        <lane id=":10203920310_1_3" index="3" disallow="tram rail_urban rail rail_electric rail_fast ship container cable_car subway aircraft wheelchair scooter drone" speed="27.78" length="5.03" shape="1555.65,1481.59 1551.87,1478.35"/>
    </edge>
    <edge id=":10203920323_0" function="internal">
        <lane id=":10203920323_0_0" index="0" disallow="tram rail_urban rail rail_electric rail_fast ship container cable_car subway aircraft wheelchair scooter drone" speed="22.22" length="0.30" shape="1549.68,1432.04 1549.74,1432.34"/>
    </edge>
    <edge id=":10203920324_0" function="internal">
        <lane id=":10203920324_0_0" index="0" disallow="tram rail_urban rail rail_electric rail_fast ship container cable_car subway aircraft wheelchair scooter drone" speed="27.78" length="13.16" shape="1472.42,1492.20 1478.79,1480.75"/>
        <lane id=":10203920324_0_1" index="1" disallow="tram rail_urban rail rail_electric rail_fast ship container cable_car subway aircraft wheelchair scooter drone" speed="27.78" length="13.16" shape="1475.21,1493.79 1481.60,1482.29"/>
        <lane id=":10203920324_0_2" index="2" disallow="tram rail_urban rail rail_electric rail_fast ship container cable_car subway aircraft wheelchair scooter drone" speed="27.78" length="13.16" shape="1477.99,1495.37 1484.41,1483.82"/>
    </edge>
    <edge id=":10203920324_3" function="internal">
        <lane id=":10203920324_3_0" index="0" disallow="tram rail_urban rail rail_electric rail_fast ship container cable_car subway aircraft wheelchair scooter drone" speed="6.64" length="9.39" shape="1477.99,1495.37 1479.85,1492.56 1481.63,1490.81 1483.34,1490.12 1484.98,1490.48"/>
        <lane id=":10203920324_3_1" index="1" disallow="tram rail_urban rail rail_electric rail_fast ship container cable_car subway aircraft wheelchair scooter drone" speed="5.69" length="6.61" shape="1477.99,1495.37 1479.15,1493.78 1480.45,1492.90 1481.87,1492.73 1483.42,1493.28"/>
    </edge>
    <edge id=":10203920325_0" function="internal">
        <lane id=":10203920325_0_0" index="0" disallow="tram rail_urban rail rail_electric rail_fast ship container cable_car subway aircraft wheelchair scooter drone" speed="27.78" length="7.15" shape="1496.78,1490.72 1493.25,1496.94"/>
        <lane id=":10203920325_0_1" index="1" disallow="tram rail_urban rail rail_electric rail_fast ship container cable_car subway aircraft wheelchair scooter drone" speed="27.78" length="7.15" shape="1494.00,1489.14 1490.47,1495.36"/>
        <lane id=":10203920325_0_2" index="2" disallow="tram rail_urban rail rail_electric rail_fast ship container cable_car subway aircraft wheelchair scooter drone" speed="27.78" length="7.15" shape="1491.22,1487.56 1487.69,1493.78"/>
    </edge>
    <edge id=":10203920325_3" function="internal">
        <lane id=":10203920325_3_0" index="0" disallow="tram rail_urban rail rail_electric rail_fast ship container cable_car subway aircraft wheelchair scooter drone" speed="5.96" length="7.48" shape="1485.15,1490.58 1487.77,1492.15 1489.54,1493.47 1490.43,1494.54 1490.47,1495.36"/>
        <lane id=":10203920325_3_1" index="1" disallow="tram rail_urban rail rail_electric rail_fast ship container cable_car subway aircraft wheelchair scooter drone" speed="4.64" length="4.11" shape="1483.60,1493.37 1487.69,1493.78"/>
    </edge>
    <edge id=":10203920328_0" function="internal">
        <lane id=":10203920328_0_0" index="0" disallow="tram rail_urban rail rail_electric rail_fast ship container cable_car subway aircraft wheelchair scooter drone" speed="5.78" length="7.05" shape="1539.95,1396.15 1537.56,1394.47 1535.97,1393.10 1535.17,1392.06 1535.16,1391.35"/>
        <lane id=":10203920328_0_1" index="1" disallow="tram rail_urban rail rail_electric rail_fast ship container cable_car subway aircraft wheelchair scooter drone" speed="4.54" length="3.95" shape="1541.72,1393.48 1537.78,1393.19"/>
    </edge>
    <edge id=":10203920328_2" function="internal">
        <lane id=":10203920328_2_0" index="0" disallow="tram rail_urban rail rail_electric rail_fast ship container cable_car subway aircraft wheelchair scooter drone" speed="16.67" length="7.09" shape="1528.70,1395.67 1532.55,1389.50"/>
        <lane id=":10203920328_2_1" index="1" disallow="tram rail_urban rail rail_electric rail_fast ship container cable_car subway aircraft wheelchair scooter drone" speed="16.67" length="7.09" shape="1531.42,1397.36 1535.16,1391.35"/>
        <lane id=":10203920328_2_2" index="2" disallow="tram rail_urban rail rail_electric rail_fast ship container cable_car subway aircraft wheelchair scooter drone" speed="16.67" length="7.09" shape="1534.13,1399.06 1537.78,1393.19"/>
    </edge>
    <edge id=":10203920329_0" function="internal">
        <lane id=":10203920329_0_0" index="0" disallow="tram rail_urban rail rail_electric rail_fast ship container cable_car subway aircraft wheelchair scooter drone" speed="16.67" length="5.56" shape="1548.53,1401.49 1545.72,1406.23"/>
        <lane id=":10203920329_0_1" index="1" disallow="tram rail_urban rail rail_electric rail_fast ship container cable_car subway aircraft wheelchair scooter drone" speed="16.67" length="5.56" shape="1545.81,1399.81 1542.97,1404.59"/>
        <lane id=":10203920329_0_2" index="2" disallow="tram rail_urban rail rail_electric rail_fast ship container cable_car subway aircraft wheelchair scooter drone" speed="16.67" length="5.56" shape="1543.08,1398.13 1540.22,1402.95"/>
    </edge>
    <edge id=":10203920329_3" function="internal">
        <lane id=":10203920329_3_0" index="0" disallow="tram rail_urban rail rail_electric rail_fast ship container cable_car subway aircraft wheelchair scooter drone" speed="4.43" length="3.72" shape="1543.08,1398.13 1542.51,1398.28 1541.72,1397.72 1540.86,1396.91 1540.12,1396.26"/>
        <lane id=":10203920329_3_1" index="1" disallow="tram rail_urban rail rail_electric rail_fast ship container cable_car subway aircraft wheelchair scooter drone" speed="4.86" length="4.69" shape="1543.08,1398.13 1541.89,1393.59"/>
    </edge>
    <edge id=":10203920335_0" function="internal">
        <lane id=":10203920335_0_0" index="0" disallow="tram rail_urban rail rail_electric rail_fast ship container cable_car subway aircraft wheelchair scooter drone" speed="22.22" length="0.30" shape="1476.46,1453.97 1476.38,1453.69"/>
    </edge>
    <edge id=":10203920337_0" function="internal">
        <lane id=":10203920337_0_0" index="0" disallow="tram rail_urban rail rail_electric rail_fast ship container cable_car subway aircraft wheelchair scooter drone" speed="22.22" length="0.10" shape="1520.33,1488.79 1520.33,1488.79"/>
    </edge>
    <edge id=":10203959195_0" function="internal">
        <lane id=":10203959195_0_0" index="0" disallow="tram rail_urban rail rail_electric rail_fast ship container cable_car subway aircraft wheelchair scooter drone" speed="16.67" length="0.10" shape="1790.91,938.62 1790.91,938.62"/>
        <lane id=":10203959195_0_1" index="1" disallow="tram rail_urban rail rail_electric rail_fast ship container cable_car subway aircraft wheelchair scooter drone" speed="16.67" length="0.10" shape="1793.70,940.18 1793.70,940.18"/>
        <lane id=":10203959195_0_2" index="2" disallow="tram rail_urban rail rail_electric rail_fast ship container cable_car subway aircraft wheelchair scooter drone" speed="16.67" length="0.10" shape="1796.49,941.74 1796.49,941.74"/>
    </edge>
    <edge id=":10203959196_0" function="internal">
        <lane id=":10203959196_0_0" index="0" disallow="tram rail_urban rail rail_electric rail_fast ship container cable_car subway aircraft wheelchair scooter drone" speed="16.67" length="0.10" shape="1809.52,947.92 1809.52,947.92"/>
        <lane id=":10203959196_0_1" index="1" disallow="tram rail_urban rail rail_electric rail_fast ship container cable_car subway aircraft wheelchair scooter drone" speed="16.67" length="0.10" shape="1806.67,946.46 1806.67,946.46"/>
        <lane id=":10203959196_0_2" index="2" disallow="tram rail_urban rail rail_electric rail_fast ship container cable_car subway aircraft wheelchair scooter drone" speed="16.67" length="0.10" shape="1803.82,945.00 1803.82,945.00"/>
    </edge>
    <edge id=":10206313928_0" function="internal">
        <lane id=":10206313928_0_0" index="0" disallow="tram rail_urban rail rail_electric rail_fast ship container cable_car subway aircraft wheelchair scooter drone" speed="22.22" length="0.10" shape="1756.54,987.45 1756.54,987.45"/>
        <lane id=":10206313928_0_1" index="1" disallow="tram rail_urban rail rail_electric rail_fast ship container cable_car subway aircraft wheelchair scooter drone" speed="22.22" length="0.10" shape="1758.12,984.67 1758.12,984.67"/>
    </edge>
    <edge id=":10206313929_0" function="internal">
        <lane id=":10206313929_0_0" index="0" disallow="tram rail_urban rail rail_electric rail_fast ship container cable_car subway aircraft wheelchair scooter drone" speed="22.22" length="4.67" shape="1767.80,967.76 1771.75,970.26"/>
        <lane id=":10206313929_0_1" index="1" disallow="tram rail_urban rail rail_electric rail_fast ship container cable_car subway aircraft wheelchair scooter drone" speed="22.22" length="4.67" shape="1766.09,970.47 1770.04,972.96"/>
        <lane id=":10206313929_0_2" index="2" disallow="tram rail_urban rail rail_electric rail_fast ship container cable_car subway aircraft wheelchair scooter drone" speed="22.22" length="4.67" shape="1764.39,973.18 1768.33,975.67"/>
    </edge>
    <edge id=":10206313935_0" function="internal">
        <lane id=":10206313935_0_0" index="0" disallow="tram rail_urban rail rail_electric rail_fast ship container cable_car subway aircraft wheelchair scooter drone" speed="13.89" length="0.30" shape="1758.56,997.61 1758.71,997.35"/>
        <lane id=":10206313935_0_1" index="1" disallow="tram rail_urban rail rail_electric rail_fast ship container cable_car subway aircraft wheelchair scooter drone" speed="13.89" length="0.30" shape="1761.35,999.19 1761.49,998.93"/>
        <lane id=":10206313935_0_2" index="2" disallow="tram rail_urban rail rail_electric rail_fast ship container cable_car subway aircraft wheelchair scooter drone" speed="13.89" length="0.30" shape="1764.13,1000.77 1764.28,1000.51"/>
    </edge>
    <edge id=":10206313936_0" function="internal">
        <lane id=":10206313936_0_0" index="0" disallow="tram rail_urban rail rail_electric rail_fast ship container cable_car subway aircraft wheelchair scooter drone" speed="13.89" length="0.30" shape="1776.45,1008.12 1776.30,1008.38"/>
        <lane id=":10206313936_0_1" index="1" disallow="tram rail_urban rail rail_electric rail_fast ship container cable_car subway aircraft wheelchair scooter drone" speed="13.89" length="0.30" shape="1773.70,1006.50 1773.54,1006.76"/>
        <lane id=":10206313936_0_2" index="2" disallow="tram rail_urban rail rail_electric rail_fast ship container cable_car subway aircraft wheelchair scooter drone" speed="13.89" length="0.30" shape="1770.94,1004.88 1770.79,1005.14"/>
    </edge>
    <edge id=":10206313938_0" function="internal">