<?xml version="1.0" encoding="UTF-8"?>

<!-- generated on 2025-06-10 17:21:48 by Eclipse SUMO netedit Version 1.22.0
<neteditConfiguration xmlns:xsi="http://www.w3.org/2001/XMLSchema-instance" xsi:noNamespaceSchemaLocation="http://sumo.dlr.de/xsd/neteditConfiguration.xsd">

    <input>
        <sumo-net-file value="C:\ITS\Traffic Light Control\Simulation Lab\CauGiay\sumo\caugiay_res.net.xml"/>
    </input>

    <output>
        <output-file value="C:\ITS\Traffic Light Control\Simulation Lab\CauGiay\sumo\caugiay_res.net.xml"/>
    </output>

    <processing>
        <geometry.min-radius.fix.railways value="false"/>
        <geometry.avoid-overlap value="0"/>
        <geometry.max-grade.fix value="false"/>
        <offset.disable-normalization value="true"/>
        <lefthand value="0"/>
    </processing>

    <junctions>
        <no-turnarounds value="true"/>
        <junctions.corner-detail value="5"/>
        <junctions.limit-turn-speed value="5.50"/>
        <rectangular-lane-cut value="0"/>
    </junctions>

    <pedestrian>
        <walkingareas value="0"/>
    </pedestrian>

</neteditConfiguration>
-->

<net version="1.20" junctionCornerDetail="5" limitTurnSpeed="5.50" avoidOverlap="0" xmlns:xsi="http://www.w3.org/2001/XMLSchema-instance" xsi:noNamespaceSchemaLocation="http://sumo.dlr.de/xsd/net_file.xsd">

    <location netOffset="-581155.35,-2324860.75" convBoundary="-566.24,-1353.85,2746.83,1978.31" origBoundary="105.781051,20.960406,105.813160,21.045988" projParameter="+proj=utm +zone=48 +ellps=WGS84 +datum=WGS84 +units=m +no_defs"/>

    <type id="highway.cycleway" priority="1" numLanes="1" speed="5.56" allow="bicycle" oneway="0" width="2.00"/>
    <type id="highway.footway" priority="1" numLanes="1" speed="2.78" allow="pedestrian" oneway="1" width="2.00"/>
    <type id="highway.motorway" priority="14" numLanes="2" speed="39.44" allow="private emergency authority army vip passenger hov taxi bus coach delivery truck trailer motorcycle evehicle custom1 custom2" oneway="1"/>
    <type id="highway.motorway_link" priority="9" numLanes="1" speed="22.22" allow="private emergency authority army vip passenger hov taxi bus coach delivery truck trailer motorcycle evehicle custom1 custom2" oneway="1"/>
    <type id="highway.primary" priority="12" numLanes="2" speed="27.78" disallow="tram rail_urban rail rail_electric rail_fast ship container cable_car subway aircraft wheelchair scooter drone" oneway="0"/>
    <type id="highway.primary_link" priority="7" numLanes="1" speed="22.22" disallow="tram rail_urban rail rail_electric rail_fast ship container cable_car subway aircraft wheelchair scooter drone" oneway="0"/>
    <type id="highway.residential" priority="3" numLanes="1" speed="13.89" disallow="tram rail_urban rail rail_electric rail_fast ship container cable_car subway aircraft wheelchair scooter drone" oneway="0"/>
    <type id="highway.secondary" priority="11" numLanes="1" speed="27.78" disallow="tram rail_urban rail rail_electric rail_fast ship container cable_car subway aircraft wheelchair scooter drone" oneway="0"/>
    <type id="highway.secondary_link" priority="6" numLanes="1" speed="22.22" disallow="tram rail_urban rail rail_electric rail_fast ship container cable_car subway aircraft wheelchair scooter drone" oneway="0"/>
    <type id="highway.service" priority="1" numLanes="1" speed="5.56" allow="pedestrian delivery bicycle" oneway="0"/>
    <type id="highway.steps" priority="1" numLanes="1" speed="1.39" allow="pedestrian" oneway="1" width="2.00"/>
    <type id="highway.tertiary" priority="10" numLanes="1" speed="22.22" disallow="tram rail_urban rail rail_electric rail_fast ship container cable_car subway aircraft wheelchair scooter drone" oneway="0"/>
    <type id="highway.trunk" priority="13" numLanes="2" speed="27.78" disallow="pedestrian bicycle tram rail_urban rail rail_electric rail_fast ship container cable_car subway aircraft wheelchair scooter drone" oneway="0"/>
    <type id="highway.trunk_link" priority="8" numLanes="1" speed="22.22" disallow="pedestrian bicycle tram rail_urban rail rail_electric rail_fast ship container cable_car subway aircraft wheelchair scooter drone" oneway="0"/>

    <edge id=":10180120740_0" function="internal">
        <lane id=":10180120740_0_0" index="0" allow="pedestrian bicycle" speed="5.56" length="1.73" width="2.00" shape="1915.83,568.02 1915.34,567.87 1915.02,567.72 1914.75,567.50 1914.40,567.12"/>
    </edge>
    <edge id=":10180120740_1" function="internal">
        <lane id=":10180120740_1_0" index="0" allow="pedestrian bicycle" speed="2.89" length="2.92" width="2.00" shape="1915.83,568.02 1915.25,567.34 1915.14,566.79 1915.52,566.37 1916.38,566.10"/>
    </edge>
    <edge id=":10180120740_2" function="internal">
        <lane id=":10180120740_2_0" index="0" allow="pedestrian bicycle" speed="5.56" length="0.58" width="2.00" shape="1915.90,565.80 1916.02,565.92 1916.11,566.00 1916.22,566.05 1916.38,566.10"/>
    </edge>
    <edge id=":10180120740_3" function="internal">
        <lane id=":10180120740_3_0" index="0" allow="pedestrian bicycle" speed="2.89" length="2.92" width="2.00" shape="1915.90,565.80 1916.02,566.69 1915.81,567.21 1915.27,567.35 1914.40,567.12"/>
    </edge>
    <edge id=":10180120741_0" function="internal">
        <lane id=":10180120741_0_0" index="0" allow="pedestrian bicycle" speed="3.85" length="4.37" width="2.00" shape="1923.45,568.13 1924.55,568.51 1925.99,569.02 1927.19,569.31 1927.52,569.02"/>
    </edge>
    <edge id=":10180120741_1" function="internal">
        <lane id=":10180120741_1_0" index="0" allow="pedestrian bicycle" speed="2.89" length="2.92" width="2.00" shape="1923.45,568.13 1924.03,568.82 1924.13,569.36 1923.76,569.78 1922.90,570.05"/>
    </edge>
    <edge id=":10180120742_0" function="internal">
        <lane id=":10180120742_0_0" index="0" disallow="tram rail_urban rail rail_electric rail_fast ship container cable_car subway aircraft wheelchair scooter drone" speed="27.78" length="4.44" width="3.50" shape="1813.79,172.19 1813.07,173.11 1812.62,173.76 1812.20,174.44 1811.63,175.45"/>
        <lane id=":10180120742_0_1" index="1" disallow="tram rail_urban rail rail_electric rail_fast ship container cable_car subway aircraft wheelchair scooter drone" speed="27.78" length="4.44" width="3.50" shape="1811.05,170.01 1810.24,171.05 1809.72,171.79 1809.25,172.56 1808.59,173.70"/>
        <lane id=":10180120742_0_2" index="2" disallow="tram rail_urban rail rail_electric rail_fast ship container cable_car subway aircraft wheelchair scooter drone" speed="27.78" length="4.44" width="3.50" shape="1808.31,167.83 1807.41,168.99 1806.82,169.81 1806.30,170.67 1805.56,171.95"/>
    </edge>
    <edge id=":10180120743_0" function="internal">
        <lane id=":10180120743_0_0" index="0" disallow="tram rail_urban rail rail_electric rail_fast ship container cable_car subway aircraft wheelchair scooter drone" speed="27.78" length="5.48" width="3.50" shape="1807.19,148.26 1808.27,146.92 1809.02,146.01 1809.82,145.14 1811.00,143.90"/>
        <lane id=":10180120743_0_1" index="1" disallow="tram rail_urban rail rail_electric rail_fast ship container cable_car subway aircraft wheelchair scooter drone" speed="27.78" length="5.48" width="3.50" shape="1809.93,150.44 1810.94,149.17 1811.66,148.32 1812.41,147.50 1813.53,146.32"/>
        <lane id=":10180120743_0_2" index="2" disallow="tram rail_urban rail rail_electric rail_fast ship container cable_car subway aircraft wheelchair scooter drone" speed="27.78" length="5.48" width="3.50" shape="1812.66,152.62 1813.62,151.43 1814.29,150.62 1815.00,149.85 1816.06,148.74"/>
    </edge>
    <edge id=":10180120744_0" function="internal">
        <lane id=":10180120744_0_0" index="0" disallow="tram rail_urban rail rail_electric rail_fast ship container cable_car subway aircraft wheelchair scooter drone" speed="27.78" length="4.33" width="3.50" shape="1825.41,157.99 1824.59,158.80 1824.04,159.37 1823.53,159.97 1822.81,160.87"/>
        <lane id=":10180120744_0_1" index="1" disallow="tram rail_urban rail rail_electric rail_fast ship container cable_car subway aircraft wheelchair scooter drone" speed="27.78" length="4.33" width="3.50" shape="1822.97,155.48 1822.05,156.38 1821.44,157.02 1820.87,157.69 1820.07,158.70"/>
        <lane id=":10180120744_0_2" index="2" disallow="tram rail_urban rail rail_electric rail_fast ship container cable_car subway aircraft wheelchair scooter drone" speed="27.78" length="4.33" width="3.50" shape="1820.53,152.97 1819.52,153.97 1818.84,154.67 1818.22,155.41 1817.33,156.52"/>
    </edge>
    <edge id=":10180120746_0" function="internal">
        <lane id=":10180120746_0_0" index="0" disallow="tram rail_urban rail rail_electric rail_fast ship container cable_car subway aircraft wheelchair scooter drone" speed="27.78" length="3.41" width="3.50" shape="1794.96,165.79 1796.71,162.81"/>
        <lane id=":10180120746_0_1" index="1" disallow="tram rail_urban rail rail_electric rail_fast ship container cable_car subway aircraft wheelchair scooter drone" speed="27.78" length="3.41" width="3.50" shape="1797.98,167.55 1799.71,164.62"/>
        <lane id=":10180120746_0_2" index="2" disallow="tram rail_urban rail rail_electric rail_fast ship container cable_car subway aircraft wheelchair scooter drone" speed="27.78" length="3.41" width="3.50" shape="1801.00,169.32 1802.71,166.42"/>
    </edge>
    <edge id=":10180120747_0" function="internal">
        <lane id=":10180120747_0_0" index="0" allow="pedestrian bicycle" speed="2.89" length="2.92" width="2.00" shape="2468.99,-783.14 2469.89,-783.19 2470.39,-782.94 2470.49,-782.39 2470.19,-781.54"/>
    </edge>
    <edge id=":10180120750_0" function="internal">
        <lane id=":10180120750_0_0" index="0" disallow="tram rail_urban rail rail_electric rail_fast ship container cable_car subway aircraft wheelchair scooter drone" speed="27.78" length="0.41" width="3.50" shape="2490.23,-760.58 2489.73,-760.12"/>
        <lane id=":10180120750_0_1" index="1" disallow="tram rail_urban rail rail_electric rail_fast ship container cable_car subway aircraft wheelchair scooter drone" speed="27.78" length="0.41" width="3.50" shape="2487.76,-763.06 2487.45,-762.78"/>
        <lane id=":10180120750_0_2" index="2" disallow="tram rail_urban rail rail_electric rail_fast ship container cable_car subway aircraft wheelchair scooter drone" speed="27.78" length="0.41" width="3.50" shape="2485.28,-765.53 2485.18,-765.44"/>
    </edge>
    <edge id=":10202001771_0" function="internal">
        <lane id=":10202001771_0_0" index="0" disallow="tram rail_urban rail rail_electric rail_fast ship container cable_car subway aircraft wheelchair scooter drone" speed="27.78" length="0.34" width="3.75" shape="471.87,-320.50 472.25,-320.21"/>
        <lane id=":10202001771_0_1" index="1" disallow="tram rail_urban rail rail_electric rail_fast ship container cable_car subway aircraft wheelchair scooter drone" speed="27.78" length="0.34" width="3.75" shape="469.65,-317.47 469.96,-317.24"/>
        <lane id=":10202001771_0_2" index="2" disallow="tram rail_urban rail rail_electric rail_fast ship container cable_car subway aircraft wheelchair scooter drone" speed="27.78" length="0.34" width="3.75" shape="467.43,-314.45 467.67,-314.27"/>
        <lane id=":10202001771_0_3" index="3" disallow="tram rail_urban rail rail_electric rail_fast ship container cable_car subway aircraft wheelchair scooter drone" speed="27.78" length="0.34" width="3.75" shape="465.21,-311.43 465.38,-311.30"/>
    </edge>
    <edge id=":10202001781_0" function="internal">
        <lane id=":10202001781_0_0" index="0" disallow="tram rail_urban rail rail_electric rail_fast ship container cable_car subway aircraft wheelchair scooter drone" speed="12.34" length="17.41" width="3.75" shape="527.11,-287.36 527.71,-283.01 528.93,-279.29 530.75,-276.19 533.19,-273.73"/>
        <lane id=":10202001781_0_1" index="1" disallow="tram rail_urban rail rail_electric rail_fast ship container cable_car subway aircraft wheelchair scooter drone" speed="13.05" length="17.41" width="3.75" shape="527.11,-287.36 527.69,-280.94 528.51,-276.04 529.57,-272.65 530.88,-270.78"/>
        <lane id=":10202001781_0_2" index="2" disallow="tram rail_urban rail rail_electric rail_fast ship container cable_car subway aircraft wheelchair scooter drone" speed="13.88" length="17.41" width="3.75" shape="527.11,-287.36 527.25,-283.98 527.57,-277.45 528.02,-271.00 528.57,-267.83"/>
    </edge>
    <edge id=":10202001781_3" function="internal">
        <lane id=":10202001781_3_0" index="0" disallow="tram rail_urban rail rail_electric rail_fast ship container cable_car subway aircraft wheelchair scooter drone" speed="27.78" length="15.53" width="3.75" shape="520.60,-283.02 533.19,-273.73"/>
        <lane id=":10202001781_3_1" index="1" disallow="tram rail_urban rail rail_electric rail_fast ship container cable_car subway aircraft wheelchair scooter drone" speed="27.78" length="15.53" width="3.75" shape="518.35,-280.02 530.88,-270.78"/>
        <lane id=":10202001781_3_2" index="2" disallow="tram rail_urban rail rail_electric rail_fast ship container cable_car subway aircraft wheelchair scooter drone" speed="27.78" length="15.53" width="3.75" shape="516.10,-277.02 528.57,-267.83"/>
        <lane id=":10202001781_3_3" index="3" disallow="tram rail_urban rail rail_electric rail_fast ship container cable_car subway aircraft wheelchair scooter drone" speed="27.78" length="15.53" width="3.75" shape="513.85,-274.02 526.26,-264.87"/>
    </edge>
    <edge id=":10203920310_0" function="internal">
        <lane id=":10203920310_0_0" index="0" disallow="tram rail_urban rail rail_electric rail_fast ship container cable_car subway aircraft wheelchair scooter drone" speed="13.65" length="13.37" width="7.00" shape="984.21,105.99 980.83,103.72 977.94,102.73 975.06,102.49 971.71,102.48"/>
    </edge>
    <edge id=":10203920310_1" function="internal">
        <lane id=":10203920310_1_0" index="0" disallow="tram rail_urban rail rail_electric rail_fast ship container cable_car subway aircraft wheelchair scooter drone" speed="27.78" length="8.79" shape="984.21,105.99 977.81,100.23"/>
        <lane id=":10203920310_1_1" index="1" disallow="tram rail_urban rail rail_electric rail_fast ship container cable_car subway aircraft wheelchair scooter drone" speed="27.78" length="8.79" shape="986.58,103.09 979.75,97.69"/>
        <lane id=":10203920310_1_2" index="2" disallow="tram rail_urban rail rail_electric rail_fast ship container cable_car subway aircraft wheelchair scooter drone" speed="27.78" length="8.79" shape="988.95,100.18 981.69,95.14"/>
        <lane id=":10203920310_1_3" index="3" disallow="tram rail_urban rail rail_electric rail_fast ship container cable_car subway aircraft wheelchair scooter drone" speed="27.78" length="8.79" shape="991.32,97.27 989.15,95.73 987.51,94.89 985.85,94.08 983.63,92.60"/>
    </edge>
    <edge id=":10203920324_0" function="internal">
        <lane id=":10203920324_0_0" index="0" disallow="tram rail_urban rail rail_electric rail_fast ship container cable_car subway aircraft wheelchair scooter drone" speed="27.78" length="13.06" shape="905.60,108.29 911.99,96.98"/>
        <lane id=":10203920324_0_1" index="1" disallow="tram rail_urban rail rail_electric rail_fast ship container cable_car subway aircraft wheelchair scooter drone" speed="27.78" length="13.06" shape="908.38,109.88 914.80,98.51"/>
        <lane id=":10203920324_0_2" index="2" disallow="tram rail_urban rail rail_electric rail_fast ship container cable_car subway aircraft wheelchair scooter drone" speed="27.78" length="13.06" shape="911.16,111.46 917.61,100.04"/>
    </edge>
    <edge id=":10203920324_3" function="internal">
        <lane id=":10203920324_3_0" index="0" disallow="tram rail_urban rail rail_electric rail_fast ship container cable_car subway aircraft wheelchair scooter drone" speed="7.01" length="10.29" shape="911.16,111.46 913.36,108.31 915.35,106.29 917.14,105.41 918.74,105.67"/>
        <lane id=":10203920324_3_1" index="1" disallow="tram rail_urban rail rail_electric rail_fast ship container cable_car subway aircraft wheelchair scooter drone" speed="6.08" length="7.50" shape="911.16,111.46 912.63,109.50 914.12,108.35 915.64,108.01 917.18,108.47"/>
    </edge>
    <edge id=":10203920325_0" function="internal">
        <lane id=":10203920325_0_0" index="0" disallow="tram rail_urban rail rail_electric rail_fast ship container cable_car subway aircraft wheelchair scooter drone" speed="27.78" length="5.71" shape="930.54,105.91 927.73,110.88"/>
        <lane id=":10203920325_0_1" index="1" disallow="tram rail_urban rail rail_electric rail_fast ship container cable_car subway aircraft wheelchair scooter drone" speed="27.78" length="5.71" shape="927.76,104.33 924.94,109.30"/>
        <lane id=":10203920325_0_2" index="2" disallow="tram rail_urban rail rail_electric rail_fast ship container cable_car subway aircraft wheelchair scooter drone" speed="27.78" length="5.71" shape="924.98,102.75 922.16,107.71"/>
    </edge>
    <edge id=":10203920325_3" function="internal">
        <lane id=":10203920325_3_0" index="0" disallow="tram rail_urban rail rail_electric rail_fast ship container cable_car subway aircraft wheelchair scooter drone" speed="5.83" length="7.10" shape="918.91,105.77 920.29,106.40 922.44,107.39 924.33,108.45 924.94,109.30"/>
        <lane id=":10203920325_3_1" index="1" disallow="tram rail_urban rail rail_electric rail_fast ship container cable_car subway aircraft wheelchair scooter drone" speed="4.97" length="4.88" shape="917.36,108.56 922.16,107.71"/>
    </edge>
    <edge id=":10203920328_0" function="internal">
        <lane id=":10203920328_0_0" index="0" disallow="tram rail_urban rail rail_electric rail_fast ship container cable_car subway aircraft wheelchair scooter drone" speed="7.04" length="10.93" shape="973.71,11.34 971.52,9.37 970.53,7.15 970.73,4.67 972.12,1.94"/>
        <lane id=":10203920328_0_1" index="1" disallow="tram rail_urban rail rail_electric rail_fast ship container cable_car subway aircraft wheelchair scooter drone" speed="5.28" length="5.68" shape="975.48,8.67 974.37,7.66 973.88,6.50 974.00,5.21 974.75,3.76"/>
    </edge>
    <edge id=":10203920328_2" function="internal">
        <lane id=":10203920328_2_0" index="0" disallow="tram rail_urban rail rail_electric rail_fast ship container cable_car subway aircraft wheelchair scooter drone" speed="16.67" length="12.69" shape="962.46,10.86 969.49,0.11"/>
        <lane id=":10203920328_2_1" index="1" disallow="tram rail_urban rail rail_electric rail_fast ship container cable_car subway aircraft wheelchair scooter drone" speed="16.67" length="12.69" shape="965.18,12.55 972.12,1.94"/>
        <lane id=":10203920328_2_2" index="2" disallow="tram rail_urban rail rail_electric rail_fast ship container cable_car subway aircraft wheelchair scooter drone" speed="16.67" length="12.69" shape="967.89,14.25 974.75,3.76"/>
    </edge>
    <edge id=":10203920329_0" function="internal">
        <lane id=":10203920329_0_0" index="0" disallow="tram rail_urban rail rail_electric rail_fast ship container cable_car subway aircraft wheelchair scooter drone" speed="16.67" length="11.39" shape="985.35,11.71 979.48,21.42"/>
        <lane id=":10203920329_0_1" index="1" disallow="tram rail_urban rail rail_electric rail_fast ship container cable_car subway aircraft wheelchair scooter drone" speed="16.67" length="11.39" shape="982.62,10.04 976.73,19.78"/>
        <lane id=":10203920329_0_2" index="2" disallow="tram rail_urban rail rail_electric rail_fast ship container cable_car subway aircraft wheelchair scooter drone" speed="16.67" length="11.39" shape="979.90,8.36 973.98,18.14"/>
    </edge>
    <edge id=":10203920329_3" function="internal">
        <lane id=":10203920329_3_0" index="0" disallow="tram rail_urban rail rail_electric rail_fast ship container cable_car subway aircraft wheelchair scooter drone" speed="5.97" length="7.62" shape="979.90,8.36 978.36,10.44 976.84,11.64 975.35,11.98 973.88,11.45"/>
        <lane id=":10203920329_3_1" index="1" disallow="tram rail_urban rail rail_electric rail_fast ship container cable_car subway aircraft wheelchair scooter drone" speed="4.94" length="4.89" shape="979.90,8.36 979.10,9.25 978.12,9.61 976.97,9.46 975.64,8.78"/>
    </edge>
    <edge id=":10222924459_0" function="internal">
        <lane id=":10222924459_0_0" index="0" disallow="tram rail_urban rail rail_electric rail_fast ship container cable_car subway aircraft wheelchair scooter drone" speed="27.78" length="0.30" shape="-162.90,643.78 -162.85,644.08"/>
        <lane id=":10222924459_0_1" index="1" disallow="tram rail_urban rail rail_electric rail_fast ship container cable_car subway aircraft wheelchair scooter drone" speed="27.78" length="0.30" shape="-166.06,644.26 -166.02,644.56"/>
        <lane id=":10222924459_0_2" index="2" disallow="tram rail_urban rail rail_electric rail_fast ship container cable_car subway aircraft wheelchair scooter drone" speed="27.78" length="0.30" shape="-169.23,644.74 -169.18,645.04"/>
    </edge>
    <edge id=":10225803199_0" function="internal">
        <lane id=":10225803199_0_0" index="0" disallow="tram rail_urban rail rail_electric rail_fast ship container cable_car subway aircraft wheelchair scooter drone" speed="27.78" length="5.94" shape="674.78,492.19 676.48,491.82 677.48,490.79 678.48,489.77 680.17,489.40"/>
        <lane id=":10225803199_0_1" index="1" disallow="tram rail_urban rail rail_electric rail_fast ship container cable_car subway aircraft wheelchair scooter drone" speed="27.78" length="5.94" shape="674.78,492.19 679.92,492.59"/>
        <lane id=":10225803199_0_2" index="2" disallow="tram rail_urban rail rail_electric rail_fast ship container cable_car subway aircraft wheelchair scooter drone" speed="27.78" length="5.94" shape="674.78,492.19 676.39,492.82 677.22,493.98 678.05,495.15 679.66,495.78"/>
    </edge>
    <edge id=":10225965954_0" function="internal">
        <lane id=":10225965954_0_0" index="0" disallow="tram rail_urban rail rail_electric rail_fast ship container cable_car subway aircraft wheelchair scooter drone" speed="22.22" length="0.32" shape="-95.35,977.16 -95.67,977.20"/>
        <lane id=":10225965954_0_1" index="1" disallow="tram rail_urban rail rail_electric rail_fast ship container cable_car subway aircraft wheelchair scooter drone" speed="22.22" length="0.32" shape="-95.82,973.99 -96.12,974.04"/>
    </edge>
    <edge id=":10225965954_2" function="internal">
        <lane id=":10225965954_2_0" index="0" disallow="tram rail_urban rail rail_electric rail_fast ship container cable_car subway aircraft wheelchair scooter drone" speed="22.22" length="0.28" shape="-97.02,967.70 -96.75,967.66"/>
        <lane id=":10225965954_2_1" index="1" disallow="tram rail_urban rail rail_electric rail_fast ship container cable_car subway aircraft wheelchair scooter drone" speed="22.22" length="0.28" shape="-96.57,970.87 -96.29,970.83"/>
    </edge>
    <edge id=":10225965961_0" function="internal">
        <lane id=":10225965961_0_0" index="0" disallow="tram rail_urban rail rail_electric rail_fast ship container cable_car subway aircraft wheelchair scooter drone" speed="22.22" length="0.30" shape="238.18,923.95 237.88,924.00"/>
        <lane id=":10225965961_0_1" index="1" disallow="tram rail_urban rail rail_electric rail_fast ship container cable_car subway aircraft wheelchair scooter drone" speed="22.22" length="0.30" shape="237.66,920.79 237.36,920.84"/>
    </edge>
    <edge id=":10225965961_2" function="internal">
        <lane id=":10225965961_2_0" index="0" disallow="tram rail_urban rail rail_electric rail_fast ship container cable_car subway aircraft wheelchair scooter drone" speed="22.22" length="0.30" shape="236.32,914.53 236.62,914.48"/>
        <lane id=":10225965961_2_1" index="1" disallow="tram rail_urban rail rail_electric rail_fast ship container cable_car subway aircraft wheelchair scooter drone" speed="22.22" length="0.30" shape="236.84,917.69 237.14,917.64"/>
    </edge>
    <edge id=":10225965972_0" function="internal">
        <lane id=":10225965972_0_0" index="0" disallow="tram rail_urban rail rail_electric rail_fast ship container cable_car subway aircraft wheelchair scooter drone" speed="22.22" length="0.23" shape="560.55,871.87 560.35,871.91"/>
        <lane id=":10225965972_0_1" index="1" disallow="tram rail_urban rail rail_electric rail_fast ship container cable_car subway aircraft wheelchair scooter drone" speed="22.22" length="0.23" shape="560.07,868.71 559.82,868.75"/>
    </edge>
    <edge id=":10225965972_2" function="internal">
        <lane id=":10225965972_2_0" index="0" disallow="tram rail_urban rail rail_electric rail_fast ship container cable_car subway aircraft wheelchair scooter drone" speed="22.22" length="0.34" shape="558.75,862.44 559.11,862.38"/>
        <lane id=":10225965972_2_1" index="1" disallow="tram rail_urban rail rail_electric rail_fast ship container cable_car subway aircraft wheelchair scooter drone" speed="22.22" length="0.34" shape="559.28,865.60 559.59,865.55"/>
    </edge>
    <edge id=":1025803400_0" function="internal">
        <lane id=":1025803400_0_0" index="0" disallow="tram rail_urban rail rail_electric rail_fast ship container cable_car subway aircraft wheelchair scooter drone" speed="27.78" length="0.30" shape="236.65,1551.74 236.35,1551.75"/>
        <lane id=":1025803400_0_1" index="1" disallow="tram rail_urban rail rail_electric rail_fast ship container cable_car subway aircraft wheelchair scooter drone" speed="27.78" length="0.30" shape="236.55,1548.55 236.25,1548.55"/>
        <lane id=":1025803400_0_2" index="2" disallow="tram rail_urban rail rail_electric rail_fast ship container cable_car subway aircraft wheelchair scooter drone" speed="27.78" length="0.30" shape="236.45,1545.35 236.15,1545.36"/>
    </edge>
    <edge id=":1025803427_0" function="internal">
        <lane id=":1025803427_0_0" index="0" disallow="tram rail_urban rail rail_electric rail_fast ship container cable_car subway aircraft wheelchair scooter drone" speed="27.78" length="0.10" shape="424.30,1546.37 424.30,1546.37"/>
        <lane id=":1025803427_0_1" index="1" disallow="tram rail_urban rail rail_electric rail_fast ship container cable_car subway aircraft wheelchair scooter drone" speed="27.78" length="0.10" shape="424.21,1543.17 424.21,1543.17"/>
        <lane id=":1025803427_0_2" index="2" disallow="tram rail_urban rail rail_electric rail_fast ship container cable_car subway aircraft wheelchair scooter drone" speed="27.78" length="0.10" shape="424.12,1539.97 424.12,1539.97"/>
    </edge>
    <edge id=":1025803437_0" function="internal">
        <lane id=":1025803437_0_0" index="0" disallow="tram rail_urban rail rail_electric rail_fast ship container cable_car subway aircraft wheelchair scooter drone" speed="27.78" length="0.29" shape="595.88,1540.00 595.65,1540.01"/>
        <lane id=":1025803437_0_1" index="1" disallow="tram rail_urban rail rail_electric rail_fast ship container cable_car subway aircraft wheelchair scooter drone" speed="27.78" length="0.29" shape="595.79,1536.81 595.51,1536.82"/>
        <lane id=":1025803437_0_2" index="2" disallow="tram rail_urban rail rail_electric rail_fast ship container cable_car subway aircraft wheelchair scooter drone" speed="27.78" length="0.29" shape="595.71,1533.61 595.37,1533.62"/>
    </edge>
    <edge id=":10259486689_0" function="internal">
        <lane id=":10259486689_0_0" index="0" disallow="tram rail_urban rail rail_electric rail_fast ship container cable_car subway aircraft wheelchair scooter drone" speed="27.78" length="0.36" shape="2215.98,802.86 2215.90,802.90"/>
        <lane id=":10259486689_0_1" index="1" disallow="tram rail_urban rail rail_electric rail_fast ship container cable_car subway aircraft wheelchair scooter drone" speed="27.78" length="0.36" shape="2214.66,799.95 2214.42,800.07"/>
        <lane id=":10259486689_0_2" index="2" disallow="tram rail_urban rail rail_electric rail_fast ship container cable_car subway aircraft wheelchair scooter drone" speed="27.78" length="0.36" shape="2213.33,797.04 2212.93,797.24"/>
        <lane id=":10259486689_0_3" index="3" disallow="tram rail_urban rail rail_electric rail_fast ship container cable_car subway aircraft wheelchair scooter drone" speed="27.78" length="0.36" shape="2212.00,794.13 2211.44,794.40"/>
    </edge>
    <edge id=":10259486690_0" function="internal">
        <lane id=":10259486690_0_0" index="0" disallow="tram rail_urban rail rail_electric rail_fast ship container cable_car subway aircraft wheelchair scooter drone" speed="27.78" length="0.30" shape="2141.71,770.75 2141.90,770.94"/>
        <lane id=":10259486690_0_1" index="1" disallow="tram rail_urban rail rail_electric rail_fast ship container cable_car subway aircraft wheelchair scooter drone" speed="27.78" length="0.30" shape="2139.49,773.06 2139.70,773.26"/>
        <lane id=":10259486690_0_2" index="2" disallow="tram rail_urban rail rail_electric rail_fast ship container cable_car subway aircraft wheelchair scooter drone" speed="27.78" length="0.30" shape="2137.27,775.37 2137.50,775.58"/>
        <lane id=":10259486690_0_3" index="3" disallow="tram rail_urban rail rail_electric rail_fast ship container cable_car subway aircraft wheelchair scooter drone" speed="27.78" length="0.30" shape="2135.06,777.68 2135.29,777.90"/>
    </edge>
    <edge id=":10259486691_0" function="internal">
        <lane id=":10259486691_0_0" index="0" disallow="tram rail_urban rail rail_electric rail_fast ship container cable_car subway aircraft wheelchair scooter drone" speed="27.78" length="0.49" width="6.00" shape="2157.66,860.41 2157.20,859.85"/>