<?xml version="1.0" encoding="UTF-8"?>

<!-- generated on 2025-06-05 18:18:41 by Eclipse SUMO netedit Version 1.23.1
<neteditConfiguration xmlns:xsi="http://www.w3.org/2001/XMLSchema-instance" xsi:noNamespaceSchemaLocation="http://sumo.dlr.de/xsd/neteditConfiguration.xsd">

    <input>
        <sumo-net-file value="/home/longpornhub/ITS/My_Simulation/Long_region.net.xml"/>
    </input>

    <output>
        <output-file value="/home/longpornhub/ITS/My_Simulation/Long_region.net.xml"/>
    </output>

    <processing>
        <geometry.min-radius.fix.railways value="false"/>
        <geometry.avoid-overlap value="false"/>
        <geometry.max-grade.fix value="false"/>
        <offset.disable-normalization value="true"/>
        <lefthand value="0"/>
    </processing>

    <junctions>
        <no-turnarounds value="true"/>
        <junctions.corner-detail value="5"/>
        <junctions.limit-turn-speed value="5.50"/>
        <rectangular-lane-cut value="0"/>
    </junctions>

    <pedestrian>
        <walkingareas value="0"/>
    </pedestrian>

</neteditConfiguration>
-->

<net version="1.20" junctionCornerDetail="5" limitTurnSpeed="5.50" avoidOverlap="0" xmlns:xsi="http://www.w3.org/2001/XMLSchema-instance" xsi:noNamespaceSchemaLocation="http://sumo.dlr.de/xsd/net_file.xsd">

    <location netOffset="-580284.65,-2323475.94" convBoundary="346.61,1615.83,1762.10,3363.12" origBoundary="105.735219,21.010177,105.803374,21.052611" projParameter="+proj=utm +zone=48 +ellps=WGS84 +datum=WGS84 +units=m +no_defs"/>

    <type id="highway.motorway" priority="14" numLanes="2" speed="39.44" allow="private emergency authority army vip passenger hov taxi bus coach delivery truck trailer motorcycle evehicle custom1 custom2" oneway="1"/>
    <type id="highway.motorway_link" priority="9" numLanes="1" speed="22.22" allow="private emergency authority army vip passenger hov taxi bus coach delivery truck trailer motorcycle evehicle custom1 custom2" oneway="1"/>
    <type id="highway.primary" priority="12" numLanes="2" speed="27.78" disallow="tram rail_urban rail rail_electric rail_fast ship container cable_car subway aircraft wheelchair scooter drone" oneway="0"/>
    <type id="highway.primary_link" priority="7" numLanes="1" speed="22.22" disallow="tram rail_urban rail rail_electric rail_fast ship container cable_car subway aircraft wheelchair scooter drone" oneway="0"/>
    <type id="highway.secondary" priority="11" numLanes="1" speed="27.78" disallow="tram rail_urban rail rail_electric rail_fast ship container cable_car subway aircraft wheelchair scooter drone" oneway="0"/>
    <type id="highway.secondary_link" priority="6" numLanes="1" speed="22.22" disallow="tram rail_urban rail rail_electric rail_fast ship container cable_car subway aircraft wheelchair scooter drone" oneway="0"/>
    <type id="highway.steps" priority="1" numLanes="1" speed="1.39" allow="pedestrian" oneway="1" width="2.00"/>
    <type id="highway.tertiary" priority="10" numLanes="1" speed="22.22" disallow="tram rail_urban rail rail_electric rail_fast ship container cable_car subway aircraft wheelchair scooter drone" oneway="0"/>
    <type id="highway.trunk" priority="13" numLanes="2" speed="27.78" disallow="pedestrian bicycle tram rail_urban rail rail_electric rail_fast ship container cable_car subway aircraft wheelchair scooter drone" oneway="0"/>
    <type id="highway.trunk_link" priority="8" numLanes="1" speed="22.22" disallow="pedestrian bicycle tram rail_urban rail rail_electric rail_fast ship container cable_car subway aircraft wheelchair scooter drone" oneway="0"/>

    <edge id=":10222924459_0" function="internal">
        <lane id=":10222924459_0_0" index="0" disallow="tram rail_urban rail rail_electric rail_fast ship container cable_car subway aircraft wheelchair scooter drone" speed="27.78" length="0.30" shape="707.80,2028.59 707.85,2028.89"/>
        <lane id=":10222924459_0_1" index="1" disallow="tram rail_urban rail rail_electric rail_fast ship container cable_car subway aircraft wheelchair scooter drone" speed="27.78" length="0.30" shape="704.64,2029.07 704.68,2029.37"/>
        <lane id=":10222924459_0_2" index="2" disallow="tram rail_urban rail rail_electric rail_fast ship container cable_car subway aircraft wheelchair scooter drone" speed="27.78" length="0.30" shape="701.47,2029.55 701.52,2029.85"/>
    </edge>
    <edge id=":10225803199_0" function="internal">
        <lane id=":10225803199_0_0" index="0" disallow="tram rail_urban rail rail_electric rail_fast ship container cable_car subway aircraft wheelchair scooter drone" speed="27.78" length="5.93" shape="1545.48,1877.00 1547.17,1876.63 1548.18,1875.60 1549.18,1874.58 1550.87,1874.21"/>
        <lane id=":10225803199_0_1" index="1" disallow="tram rail_urban rail rail_electric rail_fast ship container cable_car subway aircraft wheelchair scooter drone" speed="27.78" length="5.93" shape="1545.48,1877.00 1550.61,1877.40"/>
        <lane id=":10225803199_0_2" index="2" disallow="tram rail_urban rail rail_electric rail_fast ship container cable_car subway aircraft wheelchair scooter drone" speed="27.78" length="5.93" shape="1545.48,1877.00 1547.09,1877.63 1547.92,1878.79 1548.75,1879.96 1550.36,1880.59"/>
    </edge>
    <edge id=":10225965954_0" function="internal">
        <lane id=":10225965954_0_0" index="0" disallow="tram rail_urban rail rail_electric rail_fast ship container cable_car subway aircraft wheelchair scooter drone" speed="22.22" length="0.32" shape="775.35,2361.97 775.03,2362.01"/>
        <lane id=":10225965954_0_1" index="1" disallow="tram rail_urban rail rail_electric rail_fast ship container cable_car subway aircraft wheelchair scooter drone" speed="22.22" length="0.32" shape="774.88,2358.80 774.58,2358.85"/>
    </edge>
    <edge id=":10225965954_2" function="internal">
        <lane id=":10225965954_2_0" index="0" disallow="tram rail_urban rail rail_electric rail_fast ship container cable_car subway aircraft wheelchair scooter drone" speed="22.22" length="0.28" shape="773.68,2352.51 773.95,2352.47"/>
        <lane id=":10225965954_2_1" index="1" disallow="tram rail_urban rail rail_electric rail_fast ship container cable_car subway aircraft wheelchair scooter drone" speed="22.22" length="0.28" shape="774.13,2355.68 774.41,2355.64"/>
    </edge>
    <edge id=":10225965961_0" function="internal">
        <lane id=":10225965961_0_0" index="0" disallow="tram rail_urban rail rail_electric rail_fast ship container cable_car subway aircraft wheelchair scooter drone" speed="22.22" length="0.30" shape="1108.88,2308.76 1108.58,2308.81"/>
        <lane id=":10225965961_0_1" index="1" disallow="tram rail_urban rail rail_electric rail_fast ship container cable_car subway aircraft wheelchair scooter drone" speed="22.22" length="0.30" shape="1108.36,2305.60 1108.06,2305.65"/>
    </edge>
    <edge id=":10225965961_2" function="internal">
        <lane id=":10225965961_2_0" index="0" disallow="tram rail_urban rail rail_electric rail_fast ship container cable_car subway aircraft wheelchair scooter drone" speed="22.22" length="0.30" shape="1107.02,2299.34 1107.32,2299.29"/>
        <lane id=":10225965961_2_1" index="1" disallow="tram rail_urban rail rail_electric rail_fast ship container cable_car subway aircraft wheelchair scooter drone" speed="22.22" length="0.30" shape="1107.54,2302.50 1107.84,2302.45"/>
    </edge>
    <edge id=":10225965972_0" function="internal">
        <lane id=":10225965972_0_0" index="0" disallow="tram rail_urban rail rail_electric rail_fast ship container cable_car subway aircraft wheelchair scooter drone" speed="22.22" length="0.23" shape="1431.25,2256.68 1431.05,2256.72"/>
        <lane id=":10225965972_0_1" index="1" disallow="tram rail_urban rail rail_electric rail_fast ship container cable_car subway aircraft wheelchair scooter drone" speed="22.22" length="0.23" shape="1430.77,2253.52 1430.52,2253.56"/>
    </edge>
    <edge id=":10225965972_2" function="internal">
        <lane id=":10225965972_2_0" index="0" disallow="tram rail_urban rail rail_electric rail_fast ship container cable_car subway aircraft wheelchair scooter drone" speed="22.22" length="0.34" shape="1429.45,2247.25 1429.81,2247.19"/>
        <lane id=":10225965972_2_1" index="1" disallow="tram rail_urban rail rail_electric rail_fast ship container cable_car subway aircraft wheelchair scooter drone" speed="22.22" length="0.34" shape="1429.98,2250.41 1430.29,2250.36"/>
    </edge>
    <edge id=":1025803400_0" function="internal">
        <lane id=":1025803400_0_0" index="0" disallow="tram rail_urban rail rail_electric rail_fast ship container cable_car subway aircraft wheelchair scooter drone" speed="27.78" length="0.30" shape="1107.35,2936.55 1107.05,2936.56"/>
        <lane id=":1025803400_0_1" index="1" disallow="tram rail_urban rail rail_electric rail_fast ship container cable_car subway aircraft wheelchair scooter drone" speed="27.78" length="0.30" shape="1107.25,2933.36 1106.95,2933.36"/>
        <lane id=":1025803400_0_2" index="2" disallow="tram rail_urban rail rail_electric rail_fast ship container cable_car subway aircraft wheelchair scooter drone" speed="27.78" length="0.30" shape="1107.15,2930.16 1106.85,2930.17"/>
    </edge>
    <edge id=":1025803411_0" function="internal">
        <lane id=":1025803411_0_0" index="0" disallow="tram rail_urban rail rail_electric rail_fast ship container cable_car subway aircraft wheelchair scooter drone" speed="22.22" length="0.32" shape="1129.77,2667.81 1129.67,2667.80 1129.61,2667.79 1129.54,2667.79 1129.45,2667.79"/>
    </edge>
    <edge id=":1025803411_1" function="internal">
        <lane id=":1025803411_1_0" index="0" disallow="tram rail_urban rail rail_electric rail_fast ship container cable_car subway aircraft wheelchair scooter drone" speed="22.22" length="0.97" shape="1129.35,2664.59 1129.63,2664.58 1129.83,2664.59 1130.03,2664.61 1130.31,2664.66"/>
    </edge>
    <edge id=":1025803427_0" function="internal">
        <lane id=":1025803427_0_0" index="0" disallow="tram rail_urban rail rail_electric rail_fast ship container cable_car subway aircraft wheelchair scooter drone" speed="27.78" length="0.10" shape="1295.00,2931.18 1295.00,2931.18"/>
        <lane id=":1025803427_0_1" index="1" disallow="tram rail_urban rail rail_electric rail_fast ship container cable_car subway aircraft wheelchair scooter drone" speed="27.78" length="0.10" shape="1294.91,2927.98 1294.91,2927.98"/>
        <lane id=":1025803427_0_2" index="2" disallow="tram rail_urban rail rail_electric rail_fast ship container cable_car subway aircraft wheelchair scooter drone" speed="27.78" length="0.10" shape="1294.82,2924.78 1294.82,2924.78"/>
    </edge>
    <edge id=":1025803437_0" function="internal">
        <lane id=":1025803437_0_0" index="0" disallow="tram rail_urban rail rail_electric rail_fast ship container cable_car subway aircraft wheelchair scooter drone" speed="27.78" length="0.29" shape="1466.58,2924.81 1466.35,2924.82"/>
        <lane id=":1025803437_0_1" index="1" disallow="tram rail_urban rail rail_electric rail_fast ship container cable_car subway aircraft wheelchair scooter drone" speed="27.78" length="0.29" shape="1466.49,2921.62 1466.21,2921.63"/>
        <lane id=":1025803437_0_2" index="2" disallow="tram rail_urban rail rail_electric rail_fast ship container cable_car subway aircraft wheelchair scooter drone" speed="27.78" length="0.29" shape="1466.41,2918.42 1466.07,2918.43"/>
    </edge>
    <edge id=":10259539409_0" function="internal">
        <lane id=":10259539409_0_0" index="0" disallow="tram rail_urban rail rail_electric rail_fast ship container cable_car subway aircraft wheelchair scooter drone" speed="27.78" length="1.64" shape="854.83,2870.44 855.11,2871.29 855.28,2871.88 855.40,2872.48 855.53,2873.37"/>
        <lane id=":10259539409_0_1" index="1" disallow="tram rail_urban rail rail_electric rail_fast ship container cable_car subway aircraft wheelchair scooter drone" speed="27.78" length="1.64" shape="851.80,2871.45 852.02,2872.14 852.16,2872.63 852.26,2873.12 852.37,2873.84"/>
        <lane id=":10259539409_0_2" index="2" disallow="tram rail_urban rail rail_electric rail_fast ship container cable_car subway aircraft wheelchair scooter drone" speed="27.78" length="1.64" shape="848.76,2872.45 848.94,2873.00 849.04,2873.37 849.12,2873.75 849.20,2874.32"/>
        <lane id=":10259539409_0_3" index="3" disallow="tram rail_urban rail rail_electric rail_fast ship container cable_car subway aircraft wheelchair scooter drone" speed="27.78" length="1.64" shape="845.72,2873.46 845.85,2873.85 845.92,2874.12 845.98,2874.39 846.04,2874.79"/>
        <lane id=":10259539409_0_4" index="4" disallow="tram rail_urban rail rail_electric rail_fast ship container cable_car subway aircraft wheelchair scooter drone" speed="27.78" length="1.64" shape="842.68,2874.47 842.76,2874.70 842.81,2874.86 842.84,2875.03 842.88,2875.27"/>
        <lane id=":10259539409_0_5" index="5" disallow="tram rail_urban rail rail_electric rail_fast ship container cable_car subway aircraft wheelchair scooter drone" speed="27.78" length="1.64" shape="839.65,2875.48 839.67,2875.55 839.69,2875.61 839.70,2875.66 839.71,2875.74"/>
    </edge>
    <edge id=":10259539417_0" function="internal">
        <lane id=":10259539417_0_0" index="0" disallow="tram rail_urban rail rail_electric rail_fast ship container cable_car subway aircraft wheelchair scooter drone" speed="27.78" length="0.30" shape="804.59,2953.08 804.30,2953.08"/>
        <lane id=":10259539417_0_1" index="1" disallow="tram rail_urban rail rail_electric rail_fast ship container cable_car subway aircraft wheelchair scooter drone" speed="27.78" length="0.30" shape="804.53,2949.88 804.22,2949.88"/>
    </edge>
    <edge id=":10259539418_0" function="internal">
        <lane id=":10259539418_0_0" index="0" disallow="tram rail_urban rail rail_electric rail_fast ship container cable_car subway aircraft wheelchair scooter drone" speed="16.67" length="0.80" shape="835.26,2893.10 835.61,2893.09 835.85,2893.10 836.09,2893.14 836.44,2893.21"/>
        <lane id=":10259539418_0_1" index="1" disallow="tram rail_urban rail rail_electric rail_fast ship container cable_car subway aircraft wheelchair scooter drone" speed="16.67" length="0.80" shape="835.36,2896.30 835.48,2896.30 835.56,2896.30 835.64,2896.31 835.76,2896.34"/>
    </edge>
    <edge id=":10268959238_0" function="internal">
        <lane id=":10268959238_0_0" index="0" disallow="tram rail_urban rail rail_electric rail_fast ship container cable_car subway aircraft wheelchair scooter drone" speed="27.78" length="0.30" shape="1519.60,2923.05 1519.28,2923.06"/>
        <lane id=":10268959238_0_1" index="1" disallow="tram rail_urban rail rail_electric rail_fast ship container cable_car subway aircraft wheelchair scooter drone" speed="27.78" length="0.30" shape="1519.46,2919.85 1519.16,2919.87"/>
        <lane id=":10268959238_0_2" index="2" disallow="tram rail_urban rail rail_electric rail_fast ship container cable_car subway aircraft wheelchair scooter drone" speed="27.78" length="0.30" shape="1519.32,2916.66 1519.05,2916.67"/>
    </edge>
    <edge id=":10270885404_0" function="internal">
        <lane id=":10270885404_0_0" index="0" disallow="tram rail_urban rail rail_electric rail_fast ship container cable_car subway aircraft wheelchair scooter drone" speed="22.22" length="0.10" shape="1394.55,2815.47 1394.55,2815.47"/>
    </edge>
    <edge id=":10270885404_1" function="internal">
        <lane id=":10270885404_1_0" index="0" disallow="tram rail_urban rail rail_electric rail_fast ship container cable_car subway aircraft wheelchair scooter drone" speed="22.22" length="0.10" shape="1396.31,2812.79 1396.31,2812.79"/>
    </edge>
    <edge id=":10270911919_0" function="internal">
        <lane id=":10270911919_0_0" index="0" disallow="tram rail_urban rail rail_electric rail_fast ship container cable_car subway aircraft wheelchair scooter drone" speed="6.84" length="10.29" shape="1601.06,2909.24 1601.26,2906.42 1602.32,2904.36 1604.24,2903.07 1607.02,2902.54"/>
        <lane id=":10270911919_0_1" index="1" disallow="tram rail_urban rail rail_electric rail_fast ship container cable_car subway aircraft wheelchair scooter drone" speed="6.05" length="7.83" shape="1601.06,2909.24 1601.36,2907.82 1602.47,2906.76 1604.41,2906.06 1607.17,2905.74"/>
    </edge>
    <edge id=":10270911919_2" function="internal">
        <lane id=":10270911919_2_0" index="0" disallow="tram rail_urban rail rail_electric rail_fast ship container cable_car subway aircraft wheelchair scooter drone" speed="3.65" length="4.67" shape="1601.06,2909.24 1601.77,2907.99 1602.54,2907.53 1603.37,2907.87 1604.25,2909.01"/>
    </edge>
    <edge id=":10270911919_3" function="internal">
        <lane id=":10270911919_3_0" index="0" disallow="tram rail_urban rail rail_electric rail_fast ship container cable_car subway aircraft wheelchair scooter drone" speed="27.78" length="9.44" shape="1597.42,2899.81 1606.88,2899.34"/>
        <lane id=":10270911919_3_1" index="1" disallow="tram rail_urban rail rail_electric rail_fast ship container cable_car subway aircraft wheelchair scooter drone" speed="27.78" length="9.44" shape="1597.59,2903.01 1607.02,2902.54"/>
        <lane id=":10270911919_3_2" index="2" disallow="tram rail_urban rail rail_electric rail_fast ship container cable_car subway aircraft wheelchair scooter drone" speed="27.78" length="9.44" shape="1597.76,2906.20 1607.17,2905.74"/>
    </edge>
    <edge id=":10270911919_6" function="internal">
        <lane id=":10270911919_6_0" index="0" disallow="tram rail_urban rail rail_electric rail_fast ship container cable_car subway aircraft wheelchair scooter drone" speed="6.14" length="7.80" shape="1597.76,2906.20 1600.52,2906.25 1602.52,2906.74 1603.76,2907.66 1604.25,2909.01"/>
    </edge>
    <edge id=":10280203826_0" function="internal">
        <lane id=":10280203826_0_0" index="0" disallow="tram rail_urban rail rail_electric rail_fast ship container cable_car subway aircraft wheelchair scooter drone" speed="25.00" length="17.15" shape="824.22,3216.85 823.22,3211.40 821.78,3207.33 820.32,3203.94 819.24,3200.51"/>
    </edge>
    <edge id=":10280203826_1" function="internal">
        <lane id=":10280203826_1_0" index="0" disallow="tram rail_urban rail rail_electric rail_fast ship container cable_car subway aircraft wheelchair scooter drone" speed="27.78" length="17.50" shape="824.22,3216.85 822.74,3199.39"/>
        <lane id=":10280203826_1_1" index="1" disallow="tram rail_urban rail rail_electric rail_fast ship container cable_car subway aircraft wheelchair scooter drone" speed="27.78" length="17.50" shape="827.40,3216.53 825.93,3199.12"/>
    </edge>
    <edge id=":10542375156_0" function="internal">
        <lane id=":10542375156_0_0" index="0" disallow="tram rail_urban rail rail_electric rail_fast ship container cable_car subway aircraft wheelchair scooter drone" speed="22.22" length="0.30" shape="1478.84,2249.40 1478.55,2249.45"/>
        <lane id=":10542375156_0_1" index="1" disallow="tram rail_urban rail rail_electric rail_fast ship container cable_car subway aircraft wheelchair scooter drone" speed="22.22" length="0.30" shape="1478.36,2246.24 1478.06,2246.28"/>
    </edge>
    <edge id=":10542375156_2" function="internal">
        <lane id=":10542375156_2_0" index="0" disallow="tram rail_urban rail rail_electric rail_fast ship container cable_car subway aircraft wheelchair scooter drone" speed="22.22" length="0.30" shape="1477.09,2239.96 1477.39,2239.91"/>
        <lane id=":10542375156_2_1" index="1" disallow="tram rail_urban rail rail_electric rail_fast ship container cable_car subway aircraft wheelchair scooter drone" speed="22.22" length="0.30" shape="1477.58,2243.12 1477.88,2243.08"/>
    </edge>
    <edge id=":10699042537_0" function="internal">
        <lane id=":10699042537_0_0" index="0" disallow="tram rail_urban rail rail_electric rail_fast ship container cable_car subway aircraft wheelchair scooter drone" speed="27.78" length="0.30" shape="1476.10,2924.55 1475.79,2924.56"/>
        <lane id=":10699042537_0_1" index="1" disallow="tram rail_urban rail rail_electric rail_fast ship container cable_car subway aircraft wheelchair scooter drone" speed="27.78" length="0.30" shape="1476.00,2921.36 1475.70,2921.36"/>
        <lane id=":10699042537_0_2" index="2" disallow="tram rail_urban rail rail_electric rail_fast ship container cable_car subway aircraft wheelchair scooter drone" speed="27.78" length="0.30" shape="1475.90,2918.16 1475.61,2918.17"/>
    </edge>
    <edge id=":10943481549_0" function="internal">
        <lane id=":10943481549_0_0" index="0" disallow="pedestrian tram rail_urban rail rail_electric rail_fast ship container cable_car subway aircraft wheelchair scooter drone" speed="13.89" length="2.88" width="3.88" shape="826.09,3194.92 826.02,3194.10 825.88,3193.55 825.73,3193.00 825.62,3192.19"/>
        <lane id=":10943481549_0_1" index="1" disallow="pedestrian tram rail_urban rail rail_electric rail_fast ship container cable_car subway aircraft wheelchair scooter drone" speed="13.89" length="2.88" width="3.88" shape="829.29,3194.85 829.32,3193.97 829.42,3193.37 829.50,3192.77 829.49,3191.89"/>
    </edge>
    <edge id=":10943481550_0" function="internal">
        <lane id=":10943481550_0_0" index="0" disallow="pedestrian tram rail_urban rail rail_electric rail_fast ship container cable_car subway aircraft wheelchair scooter drone" speed="13.89" length="2.74" shape="746.55,2559.25 746.46,2558.41 746.50,2557.83 746.55,2557.24 746.53,2556.39"/>
        <lane id=":10943481550_0_1" index="1" disallow="pedestrian tram rail_urban rail rail_electric rail_fast ship container cable_car subway aircraft wheelchair scooter drone" speed="13.89" length="2.74" shape="750.37,2558.62 750.20,2557.87 750.01,2557.37 749.84,2556.87 749.72,2556.11"/>
    </edge>
    <edge id=":10943481551_0" function="internal">
        <lane id=":10943481551_0_0" index="0" disallow="pedestrian tram rail_urban rail rail_electric rail_fast ship container cable_car subway aircraft wheelchair scooter drone" speed="13.89" length="2.38" width="3.88" shape="785.14,2550.83 785.23,2551.46 785.38,2551.88 785.55,2552.29 785.71,2552.92"/>
        <lane id=":10943481551_0_1" index="1" disallow="pedestrian tram rail_urban rail rail_electric rail_fast ship container cable_car subway aircraft wheelchair scooter drone" speed="13.89" length="2.38" width="3.88" shape="781.94,2550.99 781.93,2551.75 781.86,2552.28 781.81,2552.80 781.88,2553.55"/>
    </edge>
    <edge id=":10943481552_0" function="internal">
        <lane id=":10943481552_0_0" index="0" disallow="pedestrian tram rail_urban rail rail_electric rail_fast ship container cable_car subway aircraft wheelchair scooter drone" speed="13.89" length="2.96" shape="865.33,3190.00 865.35,3190.86 865.28,3191.44 865.22,3192.03 865.27,3192.88"/>
        <lane id=":10943481552_0_1" index="1" disallow="pedestrian tram rail_urban rail rail_electric rail_fast ship container cable_car subway aircraft wheelchair scooter drone" speed="13.89" length="2.96" shape="861.46,3190.30 861.59,3191.18 861.75,3191.77 861.93,3192.37 862.09,3193.25"/>
    </edge>
    <edge id=":10943481553_0" function="internal">
        <lane id=":10943481553_0_0" index="0" disallow="pedestrian tram rail_urban rail rail_electric rail_fast ship container cable_car subway aircraft wheelchair scooter drone" speed="13.89" length="0.28" width="3.88" shape="853.99,3042.20 854.02,3042.52"/>
        <lane id=":10943481553_0_1" index="1" disallow="pedestrian tram rail_urban rail rail_electric rail_fast ship container cable_car subway aircraft wheelchair scooter drone" speed="13.89" length="0.28" width="3.88" shape="850.13,3042.57 850.15,3042.82"/>
    </edge>
    <edge id=":10943481556_0" function="internal">
        <lane id=":10943481556_0_0" index="0" disallow="pedestrian tram rail_urban rail rail_electric rail_fast ship container cable_car subway aircraft wheelchair scooter drone" speed="13.89" length="0.28" width="3.88" shape="814.44,3045.73 814.42,3045.48"/>
        <lane id=":10943481556_0_1" index="1" disallow="pedestrian tram rail_urban rail rail_electric rail_fast ship container cable_car subway aircraft wheelchair scooter drone" speed="13.89" length="0.28" width="3.88" shape="818.31,3045.43 818.28,3045.12"/>
    </edge>
    <edge id=":10943481564_0" function="internal">
        <lane id=":10943481564_0_0" index="0" allow="private emergency authority army vip passenger hov taxi bus coach delivery truck trailer motorcycle evehicle custom1 custom2" speed="22.22" length="0.29" shape="844.71,3042.91 844.74,3043.22"/>
        <lane id=":10943481564_0_1" index="1" allow="private emergency authority army vip passenger hov taxi bus coach delivery truck trailer motorcycle evehicle custom1 custom2" speed="22.22" length="0.29" shape="841.52,3043.21 841.55,3043.47"/>
    </edge>
    <edge id=":10943481565_0" function="internal">
        <lane id=":10943481565_0_0" index="0" allow="private emergency authority army vip passenger hov taxi bus coach delivery truck trailer motorcycle evehicle custom1 custom2" speed="22.22" length="0.29" shape="823.59,3044.86 823.56,3044.60"/>
        <lane id=":10943481565_0_1" index="1" allow="private emergency authority army vip passenger hov taxi bus coach delivery truck trailer motorcycle evehicle custom1 custom2" speed="22.22" length="0.29" shape="826.78,3044.61 826.75,3044.30"/>
    </edge>
    <edge id=":11012669691_0" function="internal">
        <lane id=":11012669691_0_0" index="0" disallow="tram rail_urban rail rail_electric rail_fast ship container cable_car subway aircraft wheelchair scooter drone" speed="27.78" length="0.39" shape="952.73,2920.62 953.24,2920.61"/>
        <lane id=":11012669691_0_1" index="1" disallow="tram rail_urban rail rail_electric rail_fast ship container cable_car subway aircraft wheelchair scooter drone" speed="27.78" length="0.39" shape="952.80,2923.81 953.20,2923.81"/>
        <lane id=":11012669691_0_2" index="2" disallow="tram rail_urban rail rail_electric rail_fast ship container cable_car subway aircraft wheelchair scooter drone" speed="27.78" length="0.39" shape="952.88,2927.01 953.15,2927.01"/>
    </edge>
    <edge id=":11012687205_0" function="internal">
        <lane id=":11012687205_0_0" index="0" disallow="tram rail_urban rail rail_electric rail_fast ship container cable_car subway aircraft wheelchair scooter drone" speed="27.78" length="0.29" shape="1081.20,2917.33 1081.53,2917.33"/>
        <lane id=":11012687205_0_1" index="1" disallow="tram rail_urban rail rail_electric rail_fast ship container cable_car subway aircraft wheelchair scooter drone" speed="27.78" length="0.29" shape="1081.26,2920.53 1081.56,2920.53"/>
        <lane id=":11012687205_0_2" index="2" disallow="tram rail_urban rail rail_electric rail_fast ship container cable_car subway aircraft wheelchair scooter drone" speed="27.78" length="0.29" shape="1081.32,2923.73 1081.58,2923.73"/>
    </edge>
    <edge id=":11176022619_0" function="internal">
        <lane id=":11176022619_0_0" index="0" disallow="tram rail_urban rail rail_electric rail_fast ship container cable_car subway aircraft wheelchair scooter drone" speed="27.78" length="0.30" shape="708.35,2344.56 708.30,2344.26"/>
        <lane id=":11176022619_0_1" index="1" disallow="tram rail_urban rail rail_electric rail_fast ship container cable_car subway aircraft wheelchair scooter drone" speed="27.78" length="0.30" shape="711.51,2344.06 711.47,2343.76"/>
        <lane id=":11176022619_0_2" index="2" disallow="tram rail_urban rail rail_electric rail_fast ship container cable_car subway aircraft wheelchair scooter drone" speed="27.78" length="0.30" shape="714.67,2343.56 714.63,2343.26"/>
        <lane id=":11176022619_0_3" index="3" disallow="tram rail_urban rail rail_electric rail_fast ship container cable_car subway aircraft wheelchair scooter drone" speed="27.78" length="0.30" shape="717.83,2343.06 717.79,2342.76"/>
        <lane id=":11176022619_0_4" index="4" disallow="tram rail_urban rail rail_electric rail_fast ship container cable_car subway aircraft wheelchair scooter drone" speed="27.78" length="0.30" shape="720.99,2342.56 720.95,2342.26"/>
        <lane id=":11176022619_0_5" index="5" disallow="tram rail_urban rail rail_electric rail_fast ship container cable_car subway aircraft wheelchair scooter drone" speed="27.78" length="0.30" shape="724.15,2342.06 724.11,2341.76"/>
    </edge>
    <edge id=":11176022904_0" function="internal">
        <lane id=":11176022904_0_0" index="0" disallow="tram rail_urban rail rail_electric rail_fast ship container cable_car subway aircraft wheelchair scooter drone" speed="27.78" length="0.30" shape="595.60,2081.62 595.31,2081.67"/>
        <lane id=":11176022904_0_1" index="1" disallow="tram rail_urban rail rail_electric rail_fast ship container cable_car subway aircraft wheelchair scooter drone" speed="27.78" length="0.30" shape="595.14,2078.46 594.84,2078.50"/>
        <lane id=":11176022904_0_2" index="2" disallow="tram rail_urban rail rail_electric rail_fast ship container cable_car subway aircraft wheelchair scooter drone" speed="27.78" length="0.30" shape="594.67,2075.29 594.37,2075.34"/>
    </edge>
    <edge id=":11199580772_0" function="internal">
        <lane id=":11199580772_0_0" index="0" disallow="tram rail_urban rail rail_electric rail_fast ship container cable_car subway aircraft wheelchair scooter drone" speed="6.87" length="10.16" shape="1192.26,2924.18 1192.60,2921.41 1193.73,2919.41 1195.67,2918.18 1198.41,2917.71"/>
        <lane id=":11199580772_0_1" index="1" disallow="tram rail_urban rail rail_electric rail_fast ship container cable_car subway aircraft wheelchair scooter drone" speed="6.09" length="7.76" shape="1192.26,2924.18 1192.63,2922.81 1193.79,2921.81 1195.74,2921.17 1198.49,2920.91"/>
    </edge>