<?xml version="1.0" encoding="UTF-8"?>

<!-- generated on 2025-06-12 17:37:25 by Eclipse SUMO netedit Version 1.22.0
<neteditConfiguration xmlns:xsi="http://www.w3.org/2001/XMLSchema-instance" xsi:noNamespaceSchemaLocation="http://sumo.dlr.de/xsd/neteditConfiguration.xsd">

    <input>
        <sumo-net-file value="C:\ITS\Traffic Light Control\Simulation Lab\CauGiay\sumo\Long_region\Long_region_2_PVB.net.xml"/>
    </input>

    <output>
        <output-file value="C:\ITS\Traffic Light Control\Simulation Lab\CauGiay\sumo\Long_region\Long_region_2_PVB.net.xml"/>
    </output>

    <processing>
        <geometry.min-radius.fix.railways value="false"/>
        <geometry.avoid-overlap value="0"/>
        <geometry.max-grade.fix value="false"/>
        <offset.disable-normalization value="true"/>
        <lefthand value="0"/>
    </processing>

    <junctions>
        <no-turnarounds value="true"/>
        <junctions.corner-detail value="5"/>
        <junctions.limit-turn-speed value="5.50"/>
        <rectangular-lane-cut value="0"/>
    </junctions>

    <pedestrian>
        <walkingareas value="0"/>
    </pedestrian>

</neteditConfiguration>
-->

<net version="1.20" junctionCornerDetail="5" limitTurnSpeed="5.50" avoidOverlap="0" xmlns:xsi="http://www.w3.org/2001/XMLSchema-instance" xsi:noNamespaceSchemaLocation="http://sumo.dlr.de/xsd/net_file.xsd">

    <location netOffset="-581389.32,-2324474.03" convBoundary="314.79,515.69,752.44,866.40" origBoundary="105.783214,21.019174,105.792669,21.030243" projParameter="+proj=utm +zone=48 +ellps=WGS84 +datum=WGS84 +units=m +no_defs"/>

    <type id="highway.residential" priority="3" numLanes="1" speed="13.89" disallow="tram rail_urban rail rail_electric rail_fast ship container cable_car subway aircraft wheelchair scooter drone" oneway="0"/>
    <type id="highway.secondary" priority="11" numLanes="1" speed="27.78" disallow="tram rail_urban rail rail_electric rail_fast ship container cable_car subway aircraft wheelchair scooter drone" oneway="0"/>

    <edge id=":10225394963_0" function="internal">
        <lane id=":10225394963_0_0" index="0" disallow="tram rail_urban rail rail_electric rail_fast ship container cable_car subway aircraft wheelchair scooter drone" speed="13.89" length="0.10" width="3.32" shape="647.09,624.48 647.09,624.48"/>
    </edge>
    <edge id=":10225394963_1" function="internal">
        <lane id=":10225394963_1_0" index="0" disallow="tram rail_urban rail rail_electric rail_fast ship container cable_car subway aircraft wheelchair scooter drone" speed="13.89" length="0.10" width="3.32" shape="649.15,621.88 649.15,621.88"/>
    </edge>
    <edge id=":10225395076_0" function="internal">
        <lane id=":10225395076_0_0" index="0" disallow="tram rail_urban rail rail_electric rail_fast ship container cable_car subway aircraft wheelchair scooter drone" speed="13.89" length="0.10" width="5.53" shape="547.52,795.16 547.52,795.17"/>
    </edge>
    <edge id=":10225395076_1" function="internal">
        <lane id=":10225395076_1_0" index="0" disallow="tram rail_urban rail rail_electric rail_fast ship container cable_car subway aircraft wheelchair scooter drone" speed="13.89" length="0.10" width="5.53" shape="550.28,790.37 550.28,790.38"/>
    </edge>
    <edge id=":1748294250_0" function="internal">
        <lane id=":1748294250_0_0" index="0" disallow="tram rail_urban rail rail_electric rail_fast ship container cable_car subway aircraft wheelchair scooter drone" speed="13.89" length="15.07" shape="619.65,604.78 607.10,596.44"/>
    </edge>
    <edge id=":1748294250_1" function="internal">
        <lane id=":1748294250_1_0" index="0" disallow="tram rail_urban rail rail_electric rail_fast ship container cable_car subway aircraft wheelchair scooter drone" speed="3.65" length="4.67" shape="619.65,604.78 619.08,603.46 619.18,602.57 619.94,602.11 621.39,602.09"/>
    </edge>
    <edge id=":1748294250_2" function="internal">
        <lane id=":1748294250_2_0" index="0" disallow="tram rail_urban rail rail_electric rail_fast ship container cable_car subway aircraft wheelchair scooter drone" speed="13.89" length="14.99" shape="608.90,593.80 621.39,602.09"/>
    </edge>
    <edge id=":1748294250_3" function="internal">
        <lane id=":1748294250_3_0" index="0" disallow="tram rail_urban rail rail_electric rail_fast ship container cable_car subway aircraft wheelchair scooter drone" speed="3.65" length="4.67" shape="608.90,593.80 609.44,595.13 609.32,596.02 608.54,596.45 607.10,596.44"/>
    </edge>
    <edge id=":1748294250_4" function="internal">
        <lane id=":1748294250_4_0" index="0" disallow="tram rail_urban rail rail_electric rail_fast ship container cable_car subway aircraft wheelchair scooter drone" speed="6.82" length="9.15" shape="608.48,604.55 609.44,602.07 609.53,599.89 608.75,598.01 607.10,596.44"/>
    </edge>
    <edge id=":1748294250_5" function="internal">
        <lane id=":1748294250_5_0" index="0" disallow="tram rail_urban rail rail_electric rail_fast ship container cable_car subway aircraft wheelchair scooter drone" speed="6.63" length="10.01" shape="614.24,607.60 616.18,604.43 618.02,602.45 619.76,601.67 621.39,602.09"/>
    </edge>
    <edge id=":1748294257_0" function="internal">
        <lane id=":1748294257_0_0" index="0" disallow="tram rail_urban rail rail_electric rail_fast ship container cable_car subway aircraft wheelchair scooter drone" speed="6.32" length="9.12" width="3.26" shape="633.36,614.02 631.09,612.90 629.07,612.84 627.31,613.83 625.80,615.88"/>
    </edge>
    <edge id=":1748294257_1" function="internal">
        <lane id=":1748294257_1_0" index="0" disallow="tram rail_urban rail rail_electric rail_fast ship container cable_car subway aircraft wheelchair scooter drone" speed="13.89" length="16.33" shape="633.36,614.02 619.82,604.89"/>
    </edge>
    <edge id=":1748294257_2" function="internal">
        <lane id=":1748294257_2_0" index="0" disallow="tram rail_urban rail rail_electric rail_fast ship container cable_car subway aircraft wheelchair scooter drone" speed="3.72" length="4.85" width="3.32" shape="633.36,614.02 632.81,612.63 632.93,611.72 633.75,611.27 635.24,611.29"/>
    </edge>
    <edge id=":1748294257_3" function="internal">
        <lane id=":1748294257_3_0" index="0" disallow="tram rail_urban rail rail_electric rail_fast ship container cable_car subway aircraft wheelchair scooter drone" speed="6.88" length="9.78" width="3.32" shape="633.25,602.85 632.23,605.24 632.23,607.45 633.23,609.46 635.24,611.29"/>
    </edge>
    <edge id=":1748294257_4" function="internal">
        <lane id=":1748294257_4_0" index="0" disallow="tram rail_urban rail rail_electric rail_fast ship container cable_car subway aircraft wheelchair scooter drone" speed="27.78" length="15.20" width="3.26" shape="633.25,602.85 625.80,615.88"/>
        <lane id=":1748294257_4_1" index="1" disallow="tram rail_urban rail rail_electric rail_fast ship container cable_car subway aircraft wheelchair scooter drone" speed="27.78" length="15.20" width="3.26" shape="630.47,601.15 622.92,614.34"/>
        <lane id=":1748294257_4_2" index="2" disallow="tram rail_urban rail rail_electric rail_fast ship container cable_car subway aircraft wheelchair scooter drone" speed="27.78" length="15.20" width="3.26" shape="627.69,599.45 620.05,612.80"/>
    </edge>
    <edge id=":1748294257_7" function="internal">
        <lane id=":1748294257_7_0" index="0" disallow="tram rail_urban rail rail_electric rail_fast ship container cable_car subway aircraft wheelchair scooter drone" speed="6.92" length="10.51" shape="627.69,599.45 625.47,602.61 623.41,604.58 621.53,605.34 619.82,604.89"/>
    </edge>
    <edge id=":1748294257_8" function="internal">
        <lane id=":1748294257_8_0" index="0" disallow="tram rail_urban rail rail_electric rail_fast ship container cable_car subway aircraft wheelchair scooter drone" speed="13.89" length="16.43" width="3.32" shape="621.56,602.20 635.24,611.29"/>
    </edge>
    <edge id=":1748294257_9" function="internal">
        <lane id=":1748294257_9_0" index="0" disallow="tram rail_urban rail rail_electric rail_fast ship container cable_car subway aircraft wheelchair scooter drone" speed="7.47" length="11.49" width="3.26" shape="621.56,602.20 622.63,603.61 622.73,605.85 621.87,608.91 620.05,612.80"/>
    </edge>
    <edge id=":1748294257_10" function="internal">
        <lane id=":1748294257_10_0" index="0" disallow="tram rail_urban rail rail_electric rail_fast ship container cable_car subway aircraft wheelchair scooter drone" speed="3.65" length="4.67" shape="621.56,602.20 622.13,603.52 622.03,604.41 621.26,604.87 619.82,604.89"/>
    </edge>
    <edge id=":1919750970_0" function="internal">
        <lane id=":1919750970_0_0" index="0" disallow="tram rail_urban rail rail_electric rail_fast ship container cable_car subway aircraft wheelchair scooter drone" speed="6.96" length="10.05" width="3.26" shape="533.49,787.07 531.11,786.20 528.96,786.44 527.05,787.80 525.36,790.27"/>
    </edge>
    <edge id=":1919750970_1" function="internal">
        <lane id=":1919750970_1_0" index="0" disallow="tram rail_urban rail rail_electric rail_fast ship container cable_car subway aircraft wheelchair scooter drone" speed="13.89" length="16.19" shape="533.49,787.07 520.11,777.95"/>
    </edge>
    <edge id=":1919750970_2" function="internal">
        <lane id=":1919750970_2_0" index="0" disallow="tram rail_urban rail rail_electric rail_fast ship container cable_car subway aircraft wheelchair scooter drone" speed="4.80" length="8.08" width="5.53" shape="533.49,787.07 532.39,784.84 532.48,783.30 533.77,782.45 536.25,782.28"/>
    </edge>
    <edge id=":1919750970_3" function="internal">
        <lane id=":1919750970_3_0" index="0" disallow="tram rail_urban rail rail_electric rail_fast ship container cable_car subway aircraft wheelchair scooter drone" speed="6.88" length="10.21" width="5.53" shape="534.53,773.48 533.37,776.23 533.27,778.61 534.23,780.63 536.25,782.28"/>
    </edge>
    <edge id=":1919750970_4" function="internal">
        <lane id=":1919750970_4_0" index="0" disallow="tram rail_urban rail rail_electric rail_fast ship container cable_car subway aircraft wheelchair scooter drone" speed="27.78" length="19.28" width="3.26" shape="534.53,773.48 525.36,790.27"/>
        <lane id=":1919750970_4_1" index="1" disallow="tram rail_urban rail rail_electric rail_fast ship container cable_car subway aircraft wheelchair scooter drone" speed="27.78" length="19.28" width="3.26" shape="531.71,771.85 522.46,788.78"/>
        <lane id=":1919750970_4_2" index="2" disallow="tram rail_urban rail rail_electric rail_fast ship container cable_car subway aircraft wheelchair scooter drone" speed="27.78" length="19.28" width="3.26" shape="528.88,770.23 519.57,787.28"/>
    </edge>
    <edge id=":1919750970_7" function="internal">
        <lane id=":1919750970_7_0" index="0" disallow="tram rail_urban rail rail_electric rail_fast ship container cable_car subway aircraft wheelchair scooter drone" speed="7.54" length="12.55" shape="528.88,770.23 526.26,774.32 523.92,776.97 521.87,778.18 520.11,777.95"/>
    </edge>
    <edge id=":1919750970_8" function="internal">
        <lane id=":1919750970_8_0" index="0" disallow="tram rail_urban rail rail_electric rail_fast ship container cable_car subway aircraft wheelchair scooter drone" speed="13.89" length="16.16" width="5.53" shape="521.73,775.19 536.25,782.28"/>
    </edge>
    <edge id=":1919750970_9" function="internal">
        <lane id=":1919750970_9_0" index="0" disallow="tram rail_urban rail rail_electric rail_fast ship container cable_car subway aircraft wheelchair scooter drone" speed="7.84" length="13.05" width="3.26" shape="521.73,775.19 522.77,776.64 522.76,779.13 521.69,782.68 519.57,787.28"/>
    </edge>
    <edge id=":1919750970_10" function="internal">
        <lane id=":1919750970_10_0" index="0" disallow="tram rail_urban rail rail_electric rail_fast ship container cable_car subway aircraft wheelchair scooter drone" speed="3.65" length="4.67" shape="521.73,775.19 522.36,776.49 522.30,777.38 521.55,777.87 520.11,777.95"/>
    </edge>
    <edge id=":4045298642_0" function="internal">
        <lane id=":4045298642_0_0" index="0" disallow="tram rail_urban rail rail_electric rail_fast ship container cable_car subway aircraft wheelchair scooter drone" speed="13.89" length="15.88" shape="519.94,777.85 506.26,769.80"/>
    </edge>
    <edge id=":4045298642_1" function="internal">
        <lane id=":4045298642_1_0" index="0" disallow="tram rail_urban rail rail_electric rail_fast ship container cable_car subway aircraft wheelchair scooter drone" speed="7.77" length="3.14" width="3.26" shape="519.94,777.85 517.65,775.85 517.61,775.76"/>
        <lane id=":4045298642_1_1" index="1" disallow="tram rail_urban rail rail_electric rail_fast ship container cable_car subway aircraft wheelchair scooter drone" speed="7.13" length="1.66" width="3.26" shape="519.94,777.85 518.88,776.57"/>
    </edge>
    <edge id=":4045298642_3" function="internal">
        <lane id=":4045298642_3_0" index="0" disallow="tram rail_urban rail rail_electric rail_fast ship container cable_car subway aircraft wheelchair scooter drone" speed="3.65" length="1.44" shape="519.94,777.85 519.31,776.55"/>
    </edge>
    <edge id=":4045298642_7" function="internal">
        <lane id=":4045298642_7_0" index="0" disallow="tram rail_urban rail rail_electric rail_fast ship container cable_car subway aircraft wheelchair scooter drone" speed="7.77" length="9.78" width="3.26" shape="517.61,775.76 516.62,773.29 516.85,770.16 518.34,766.47"/>
        <lane id=":4045298642_7_1" index="0" disallow="tram rail_urban rail rail_electric rail_fast ship container cable_car subway aircraft wheelchair scooter drone" speed="7.13" length="9.05" width="3.26" shape="518.88,776.57 518.74,774.50 519.52,771.64 521.21,768.00"/>
    </edge>
    <edge id=":4045298642_8" function="internal">
        <lane id=":4045298642_8_0" index="0" disallow="tram rail_urban rail rail_electric rail_fast ship container cable_car subway aircraft wheelchair scooter drone" speed="3.65" length="3.23" shape="519.31,776.55 519.37,775.66 520.12,775.17 521.56,775.09"/>
    </edge>
    <edge id=":4045298642_4" function="internal">
        <lane id=":4045298642_4_0" index="0" disallow="tram rail_urban rail rail_electric rail_fast ship container cable_car subway aircraft wheelchair scooter drone" speed="6.42" length="9.06" width="3.26" shape="507.88,767.04 510.20,768.00 512.23,767.96 513.99,766.94 515.46,764.93"/>
    </edge>
    <edge id=":4045298642_5" function="internal">
        <lane id=":4045298642_5_0" index="0" disallow="tram rail_urban rail rail_electric rail_fast ship container cable_car subway aircraft wheelchair scooter drone" speed="13.89" length="15.87" shape="507.88,767.04 521.56,775.09"/>
    </edge>
    <edge id=":4045298642_6" function="internal">
        <lane id=":4045298642_6_0" index="0" disallow="tram rail_urban rail rail_electric rail_fast ship container cable_car subway aircraft wheelchair scooter drone" speed="3.65" length="1.44" shape="507.88,767.04 508.51,768.34"/>
    </edge>
    <edge id=":4045298642_9" function="internal">
        <lane id=":4045298642_9_0" index="0" disallow="tram rail_urban rail rail_electric rail_fast ship container cable_car subway aircraft wheelchair scooter drone" speed="3.65" length="3.23" shape="508.51,768.34 508.45,769.23 507.70,769.72 506.26,769.80"/>
    </edge>
    <edge id=":5718885712_0" function="internal">
        <lane id=":5718885712_0_0" index="0" disallow="tram rail_urban rail rail_electric rail_fast ship container cable_car subway aircraft wheelchair scooter drone" speed="13.89" length="0.31" width="3.32" shape="538.27,545.44 538.03,545.25"/>
    </edge>
    <edge id=":5718885712_1" function="internal">
        <lane id=":5718885712_1_0" index="0" disallow="tram rail_urban rail rail_electric rail_fast ship container cable_car subway aircraft wheelchair scooter drone" speed="13.89" length="0.28" width="3.32" shape="540.04,542.61 540.26,542.78"/>
    </edge>
    <edge id=":6628492687_0" function="internal">
        <lane id=":6628492687_0_0" index="0" disallow="tram rail_urban rail rail_electric rail_fast ship container cable_car subway aircraft wheelchair scooter drone" speed="13.89" length="0.31" width="3.32" shape="523.45,534.14 523.21,533.95"/>
    </edge>
    <edge id=":6628492687_1" function="internal">
        <lane id=":6628492687_1_0" index="0" disallow="tram rail_urban rail rail_electric rail_fast ship container cable_car subway aircraft wheelchair scooter drone" speed="13.89" length="0.28" width="3.32" shape="525.24,531.33 525.46,531.50"/>
    </edge>
    <edge id=":6629490565_0" function="internal">
        <lane id=":6629490565_0_0" index="0" disallow="tram rail_urban rail rail_electric rail_fast ship container cable_car subway aircraft wheelchair scooter drone" speed="27.78" length="0.36" width="3.26" shape="620.18,626.36 619.95,626.78"/>
        <lane id=":6629490565_0_1" index="1" disallow="tram rail_urban rail rail_electric rail_fast ship container cable_car subway aircraft wheelchair scooter drone" speed="27.78" length="0.36" width="3.26" shape="617.31,624.82 617.13,625.14"/>
        <lane id=":6629490565_0_2" index="2" disallow="tram rail_urban rail rail_electric rail_fast ship container cable_car subway aircraft wheelchair scooter drone" speed="27.78" length="0.36" width="3.26" shape="614.43,623.28 614.31,623.50"/>
    </edge>
    <edge id=":6629490566_0" function="internal">
        <lane id=":6629490566_0_0" index="0" disallow="tram rail_urban rail rail_electric rail_fast ship container cable_car subway aircraft wheelchair scooter drone" speed="27.78" length="6.16" width="3.26" shape="600.05,620.18 601.70,617.37 602.99,614.93"/>
        <lane id=":6629490566_0_1" index="1" disallow="tram rail_urban rail rail_electric rail_fast ship container cable_car subway aircraft wheelchair scooter drone" speed="27.78" length="6.16" width="3.26" shape="602.81,621.80 604.46,618.99 605.87,616.46"/>
        <lane id=":6629490566_0_2" index="2" disallow="tram rail_urban rail rail_electric rail_fast ship container cable_car subway aircraft wheelchair scooter drone" speed="27.78" length="6.16" width="3.26" shape="605.57,623.42 607.22,620.61 608.75,617.98"/>
    </edge>
    <edge id=":6629490567_0" function="internal">
        <lane id=":6629490567_0_0" index="0" disallow="tram rail_urban rail rail_electric rail_fast ship container cable_car subway aircraft wheelchair scooter drone" speed="27.78" length="0.30" width="3.26" shape="538.14,767.22 538.00,767.47"/>
        <lane id=":6629490567_0_1" index="1" disallow="tram rail_urban rail rail_electric rail_fast ship container cable_car subway aircraft wheelchair scooter drone" speed="27.78" length="0.30" width="3.26" shape="535.33,765.58 535.18,765.84"/>
        <lane id=":6629490567_0_2" index="2" disallow="tram rail_urban rail rail_electric rail_fast ship container cable_car subway aircraft wheelchair scooter drone" speed="27.78" length="0.30" width="3.26" shape="532.51,763.94 532.35,764.21"/>
    </edge>
    <edge id=":6629490568_0" function="internal">
        <lane id=":6629490568_0_0" index="0" disallow="tram rail_urban rail rail_electric rail_fast ship container cable_car subway aircraft wheelchair scooter drone" speed="27.78" length="2.92" shape="519.15,758.02 520.69,755.39"/>
        <lane id=":6629490568_0_1" index="1" disallow="tram rail_urban rail rail_electric rail_fast ship container cable_car subway aircraft wheelchair scooter drone" speed="27.78" length="2.92" shape="522.02,759.56 523.45,757.01"/>
        <lane id=":6629490568_0_2" index="2" disallow="tram rail_urban rail rail_electric rail_fast ship container cable_car subway aircraft wheelchair scooter drone" speed="27.78" length="2.92" shape="524.90,761.09 526.21,758.63"/>
    </edge>
    <edge id=":6629490569_0" function="internal">
        <lane id=":6629490569_0_0" index="0" disallow="tram rail_urban rail rail_electric rail_fast ship container cable_car subway aircraft wheelchair scooter drone" speed="13.89" length="3.25" width="5.53" shape="502.26,767.44 501.38,767.13 500.69,767.19 499.99,767.25 499.11,766.96"/>
    </edge>
    <edge id=":6629490569_1" function="internal">
        <lane id=":6629490569_1_0" index="0" disallow="tram rail_urban rail rail_electric rail_fast ship container cable_car subway aircraft wheelchair scooter drone" speed="13.89" length="3.30" shape="501.86,762.16 502.57,762.78 502.87,763.41 503.17,764.05 503.88,764.68"/>
    </edge>
    <edge id=":6672692461_0" function="internal">
        <lane id=":6672692461_0_0" index="0" disallow="tram rail_urban rail rail_electric rail_fast ship container cable_car subway aircraft wheelchair scooter drone" speed="13.89" length="2.98" width="3.32" shape="603.18,593.77 600.72,592.09"/>
    </edge>
    <edge id=":6672692461_1" function="internal">
        <lane id=":6672692461_1_0" index="0" disallow="tram rail_urban rail rail_electric rail_fast ship container cable_car subway aircraft wheelchair scooter drone" speed="13.89" length="2.83" shape="602.71,589.43 604.98,591.12"/>
    </edge>

    <edge id="-163053426#2" from="10225394963" to="5716671969" priority="3" type="highway.residential">
        <lane id="-163053426#2_0" index="0" disallow="tram rail_urban rail rail_electric rail_fast ship container cable_car subway aircraft wheelchair scooter drone" speed="13.89" length="133.11" width="3.32" shape="649.15,621.88 753.47,704.56"/>
    </edge>
    <edge id="-163053426#3" from="1748294257" to="10225394963" priority="3" type="highway.residential" shape="626.65,607.39 638.36,615.45 648.12,623.18">
        <lane id="-163053426#3_0" index="0" disallow="tram rail_urban rail rail_electric rail_fast ship container cable_car subway aircraft wheelchair scooter drone" speed="13.89" length="17.49" width="3.32" shape="635.24,611.29 639.35,614.11 649.15,621.88"/>
    </edge>
    <edge id="-163053426#4" from="1748294250" to="1748294257" priority="3" type="highway.residential">
        <lane id="-163053426#4_0" index="0" disallow="tram rail_urban rail rail_electric rail_fast ship container cable_car subway aircraft wheelchair scooter drone" speed="13.89" length="0.20" shape="621.39,602.09 621.56,602.20"/>
    </edge>
    <edge id="-163053426#5" from="6672692461" to="1748294250" priority="3" type="highway.residential" length="3.32">
        <lane id="-163053426#5_0" index="0" disallow="tram rail_urban rail rail_electric rail_fast ship container cable_car subway aircraft wheelchair scooter drone" speed="13.89" length="3.32" shape="604.98,591.12 608.90,593.80"/>
    </edge>
    <edge id="-163053426#6" from="5718885712" to="6672692461" priority="3" type="highway.residential">
        <lane id="-163053426#6_0" index="0" disallow="tram rail_urban rail rail_electric rail_fast ship container cable_car subway aircraft wheelchair scooter drone" speed="13.89" length="77.95" width="3.32" shape="540.26,542.78 602.71,589.43"/>
    </edge>
    <edge id="-163053426#7" from="6628492687" to="5718885712" priority="3" type="highway.residential">
        <lane id="-163053426#7_0" index="0" disallow="tram rail_urban rail rail_electric rail_fast ship container cable_car subway aircraft wheelchair scooter drone" speed="13.89" length="18.33" width="3.32" shape="525.46,531.50 540.04,542.61"/>
    </edge>
    <edge id="-163053426#8" from="6628492685" to="6628492687" priority="3" type="highway.residential">
        <lane id="-163053426#8_0" index="0" disallow="tram rail_urban rail rail_electric rail_fast ship container cable_car subway aircraft wheelchair scooter drone" speed="13.89" length="27.68" width="3.32" shape="503.36,514.38 525.24,531.33"/>
    </edge>
    <edge id="-402098503#1" from="10225395076" to="10225395078" priority="3" type="highway.residential">
        <lane id="-402098503#1_0" index="0" disallow="tram rail_urban rail rail_electric rail_fast ship container cable_car subway aircraft wheelchair scooter drone" speed="13.89" length="147.34" width="5.53" shape="550.28,790.38 677.90,864.01"/>
    </edge>
    <edge id="-402098503#2" from="1919750970" to="10225395076" priority="3" type="highway.residential">
        <lane id="-402098503#2_0" index="0" disallow="tram rail_urban rail rail_electric rail_fast ship container cable_car subway aircraft wheelchair scooter drone" speed="13.89" length="16.19" width="5.53" shape="536.25,782.28 550.28,790.37"/>
    </edge>
    <edge id="-402098503#3" from="4045298642" to="1919750970" priority="3" type="highway.residential">
        <lane id="-402098503#3_0" index="0" disallow="tram rail_urban rail rail_electric rail_fast ship container cable_car subway aircraft wheelchair scooter drone" speed="13.89" length="0.20" shape="521.56,775.09 521.73,775.19"/>
    </edge>
    <edge id="-402098503#4" from="6629490569" to="4045298642" priority="3" type="highway.residential">
        <lane id="-402098503#4_0" index="0" disallow="tram rail_urban rail rail_electric rail_fast ship container cable_car subway aircraft wheelchair scooter drone" speed="13.89" length="4.65" shape="503.88,764.68 507.88,767.04"/>
    </edge>
    <edge id="-402098503#5" from="6629490570" to="6629490569" priority="3" type="highway.residential" shape="314.79,657.57 420.75,718.92 501.78,765.30">
        <lane id="-402098503#5_0" index="0" disallow="tram rail_urban rail rail_electric rail_fast ship container cable_car subway aircraft wheelchair scooter drone" speed="13.89" length="214.29" width="5.53" shape="316.18,655.18 422.13,716.52 501.86,762.16"/>
    </edge>
    <edge id="106042137#10" from="6629490567" to="1919750970" priority="11" type="highway.secondary" spreadType="center">
        <lane id="106042137#10_0" index="0" disallow="tram rail_urban rail rail_electric rail_fast ship container cable_car subway aircraft wheelchair scooter drone" speed="27.78" length="6.94" width="3.26" shape="538.00,767.47 534.53,773.48"/>
        <lane id="106042137#10_1" index="1" disallow="tram rail_urban rail rail_electric rail_fast ship container cable_car subway aircraft wheelchair scooter drone" speed="27.78" length="6.94" width="3.26" shape="535.18,765.84 531.71,771.85"/>
        <lane id="106042137#10_2" index="2" disallow="tram rail_urban rail rail_electric rail_fast ship container cable_car subway aircraft wheelchair scooter drone" speed="27.78" length="6.94" width="3.26" shape="532.35,764.21 528.88,770.23"/>
    </edge>
    <edge id="106042137#11" from="1919750970" to="6672692462" priority="11" type="highway.secondary" spreadType="center">
        <lane id="106042137#11_0" index="0" disallow="tram rail_urban rail rail_electric rail_fast ship container cable_car subway aircraft wheelchair scooter drone" speed="27.78" length="4.51" width="3.26" shape="525.36,790.27 523.28,794.28"/>
        <lane id="106042137#11_1" index="1" disallow="tram rail_urban rail rail_electric rail_fast ship container cable_car subway aircraft wheelchair scooter drone" speed="27.78" length="4.51" width="3.26" shape="522.46,788.78 520.39,792.78"/>
        <lane id="106042137#11_2" index="2" disallow="tram rail_urban rail rail_electric rail_fast ship container cable_car subway aircraft wheelchair scooter drone" speed="27.78" length="4.51" width="3.26" shape="519.57,787.28 517.50,791.28"/>
    </edge>
    <edge id="106042137#7" from="1221049366" to="1748294257" priority="11" type="highway.secondary" spreadType="center">
        <lane id="106042137#7_0" index="0" disallow="tram rail_urban rail rail_electric rail_fast ship container cable_car subway aircraft wheelchair scooter drone" speed="27.78" length="11.08" width="3.26" shape="639.03,593.39 633.25,602.85"/>
        <lane id="106042137#7_1" index="1" disallow="tram rail_urban rail rail_electric rail_fast ship container cable_car subway aircraft wheelchair scooter drone" speed="27.78" length="11.08" width="3.26" shape="636.25,591.69 630.47,601.15"/>
        <lane id="106042137#7_2" index="2" disallow="tram rail_urban rail rail_electric rail_fast ship container cable_car subway aircraft wheelchair scooter drone" speed="27.78" length="11.08" width="3.26" shape="633.47,589.99 627.69,599.45"/>
    </edge>
    <edge id="106042137#8" from="1748294257" to="6629490565" priority="11" type="highway.secondary" spreadType="center">
        <lane id="106042137#8_0" index="0" disallow="tram rail_urban rail rail_electric rail_fast ship container cable_car subway aircraft wheelchair scooter drone" speed="27.78" length="11.89" width="3.26" shape="625.80,615.88 620.18,626.36"/>
        <lane id="106042137#8_1" index="1" disallow="tram rail_urban rail rail_electric rail_fast ship container cable_car subway aircraft wheelchair scooter drone" speed="27.78" length="11.89" width="3.26" shape="622.92,614.34 617.31,624.82"/>
        <lane id="106042137#8_2" index="2" disallow="tram rail_urban rail rail_electric rail_fast ship container cable_car subway aircraft wheelchair scooter drone" speed="27.78" length="11.89" width="3.26" shape="620.05,612.80 614.43,623.28"/>
    </edge>
    <edge id="106042137#9" from="6629490565" to="6629490567" priority="11" type="highway.secondary" spreadType="center" length="157.36">
        <lane id="106042137#9_0" index="0" disallow="tram rail_urban rail rail_electric rail_fast ship container cable_car subway aircraft wheelchair scooter drone" speed="27.78" length="157.36" width="3.26" shape="619.95,626.78 538.14,767.22"/>
        <lane id="106042137#9_1" index="1" disallow="tram rail_urban rail rail_electric rail_fast ship container cable_car subway aircraft wheelchair scooter drone" speed="27.78" length="157.36" width="3.26" shape="617.13,625.14 535.33,765.58"/>