<?xml version="1.0" encoding="UTF-8"?>

<!-- generated on 2025-05-24 20:04:30 by Eclipse SUMO netedit Version 1.22.0
<neteditConfiguration xmlns:xsi="http://www.w3.org/2001/XMLSchema-instance" xsi:noNamespaceSchemaLocation="http://sumo.dlr.de/xsd/neteditConfiguration.xsd">

    <input>
        <sumo-net-file value="C:\ITS\Traffic Light Control\Simulation Lab\CauGiay\net.net.xml"/>
    </input>

    <output>
        <output-file value="C:\ITS\Traffic Light Control\Simulation Lab\CauGiay\net.net.xml"/>
    </output>

    <processing>
        <geometry.min-radius.fix.railways value="false"/>
        <geometry.max-grade.fix value="false"/>
        <offset.disable-normalization value="true"/>
        <lefthand value="0"/>
    </processing>

    <junctions>
        <no-turnarounds value="true"/>
        <junctions.corner-detail value="5"/>
        <junctions.limit-turn-speed value="5.50"/>
        <rectangular-lane-cut value="0"/>
    </junctions>

    <pedestrian>
        <walkingareas value="0"/>
    </pedestrian>

</neteditConfiguration>
-->

<net version="1.20" junctionCornerDetail="5" limitTurnSpeed="5.50" xmlns:xsi="http://www.w3.org/2001/XMLSchema-instance" xsi:noNamespaceSchemaLocation="http://sumo.dlr.de/xsd/net_file.xsd">

    <location netOffset="-580031.01,-2323177.76" convBoundary="0.00,0.00,4250.32,3726.81" origBoundary="105.770210,21.007514,105.810992,21.041071" projParameter="+proj=utm +zone=48 +ellps=WGS84 +datum=WGS84 +units=m +no_defs"/>

    <edge id=":10_0" function="internal">
        <lane id=":10_0_0" index="0" speed="13.89" length="0.29" shape="2839.19,2970.65 2839.23,2970.93"/>
    </edge>
    <edge id=":100_0" function="internal">
        <lane id=":100_0_0" index="0" speed="13.89" length="10.64" shape="3615.46,2996.54 3609.31,2987.86"/>
    </edge>
    <edge id=":100_1" function="internal">
        <lane id=":100_1_0" index="0" speed="6.72" length="3.71" shape="3615.46,2996.54 3614.36,2994.40 3614.22,2993.10"/>
    </edge>
    <edge id=":100_4" function="internal">
        <lane id=":100_4_0" index="0" speed="6.72" length="5.13" shape="3614.22,2993.10 3614.15,2992.37 3614.81,2990.46 3616.35,2988.65"/>
    </edge>
    <edge id=":100_2" function="internal">
        <lane id=":100_2_0" index="0" speed="6.77" length="8.88" shape="3608.48,2995.81 3610.00,2993.94 3610.64,2991.99 3610.41,2989.96 3609.31,2987.86"/>
    </edge>
    <edge id=":100_3" function="internal">
        <lane id=":100_3_0" index="0" speed="13.89" length="10.64" shape="3608.48,2995.81 3616.35,2988.65"/>
    </edge>
    <edge id=":103_0" function="internal">
        <lane id=":103_0_0" index="0" speed="4.26" length="1.22" shape="2018.99,3205.59 2018.70,3205.37 2018.48,3205.26 2018.23,3205.22 2017.87,3205.23"/>
    </edge>
    <edge id=":104_0" function="internal">
        <lane id=":104_0_0" index="0" speed="6.83" length="8.45" shape="3271.33,2521.33 3269.53,2519.70 3267.69,2518.85 3265.78,2518.78 3263.83,2519.49"/>
    </edge>
    <edge id=":104_1" function="internal">
        <lane id=":104_1_0" index="0" speed="13.89" length="9.91" shape="3272.67,2515.02 3263.83,2519.49"/>
    </edge>
    <edge id=":11_0" function="internal">
        <lane id=":11_0_0" index="0" speed="13.89" length="0.26" shape="2866.93,3344.96 2866.92,3345.22"/>
    </edge>
    <edge id=":110_0" function="internal">
        <lane id=":110_0_0" index="0" speed="13.89" length="9.50" shape="1795.21,2535.04 1792.40,2534.75 1790.47,2534.44 1788.55,2534.32 1785.77,2534.59"/>
    </edge>
    <edge id=":110_1" function="internal">
        <lane id=":110_1_0" index="0" speed="4.13" length="5.56" shape="1795.21,2535.04 1793.64,2534.35 1793.01,2533.49 1793.32,2532.48 1794.56,2531.29"/>
    </edge>
    <edge id=":111_0" function="internal">
        <lane id=":111_0_0" index="0" speed="13.89" length="0.30" shape="1429.74,2590.96 1429.44,2591.00"/>
    </edge>
    <edge id=":112_0" function="internal">
        <lane id=":112_0_0" index="0" speed="13.89" length="0.10" shape="3624.77,2354.52 3624.77,2354.52"/>
    </edge>
    <edge id=":113_0" function="internal">
        <lane id=":113_0_0" index="0" speed="13.89" length="0.30" shape="3369.86,2468.68 3369.60,2468.80"/>
    </edge>
    <edge id=":114_0" function="internal">
        <lane id=":114_0_0" index="0" speed="13.89" length="0.22" shape="1957.60,956.18 1957.73,956.01"/>
    </edge>
    <edge id=":115_0" function="internal">
        <lane id=":115_0_0" index="0" speed="13.89" length="0.25" shape="2194.01,651.03 2194.16,650.83"/>
    </edge>
    <edge id=":116_0" function="internal">
        <lane id=":116_0_0" index="0" speed="13.89" length="0.30" shape="1649.66,1363.00 1649.84,1362.76"/>
    </edge>
    <edge id=":118_0" function="internal">
        <lane id=":118_0_0" index="0" speed="13.89" length="0.23" shape="2088.67,1114.53 2088.87,1114.65"/>
    </edge>
    <edge id=":119_0" function="internal">
        <lane id=":119_0_0" index="0" speed="13.89" length="0.22" shape="2289.75,1245.55 2289.93,1245.67"/>
    </edge>
    <edge id=":120_0" function="internal">
        <lane id=":120_0_0" index="0" speed="13.89" length="0.10" shape="2439.62,1342.59 2439.62,1342.59"/>
    </edge>
    <edge id=":121_0" function="internal">
        <lane id=":121_0_0" index="0" speed="13.89" length="0.26" shape="2778.52,1557.52 2778.74,1557.66"/>
    </edge>
    <edge id=":122_0" function="internal">
        <lane id=":122_0_0" index="0" speed="3.99" length="1.80" shape="1046.58,3250.94 1046.42,3250.50 1046.16,3250.15 1045.81,3249.90 1045.37,3249.75"/>
    </edge>
    <edge id=":123_0" function="internal">
        <lane id=":123_0_0" index="0" speed="13.89" length="0.10" shape="966.15,3228.64 966.15,3228.64"/>
    </edge>
    <edge id=":130_0" function="internal">
        <lane id=":130_0_0" index="0" speed="13.89" length="0.24" shape="539.69,2478.32 539.64,2478.37 539.60,2478.40 539.57,2478.44 539.53,2478.49"/>
    </edge>
    <edge id=":132_0" function="internal">
        <lane id=":132_0_0" index="0" speed="13.89" length="12.99" shape="3062.74,2229.58 3064.95,2232.20 3067.09,2234.39 3069.31,2236.50 3071.78,2238.90"/>
    </edge>
    <edge id=":132_1" function="internal">
        <lane id=":132_1_0" index="0" speed="13.89" length="12.99" shape="3062.74,2229.58 3064.67,2232.40 3066.10,2235.10 3067.36,2237.90 3068.83,2241.03"/>
    </edge>
    <edge id=":133_0" function="internal">
        <lane id=":133_0_0" index="0" speed="13.89" length="0.10" shape="3241.44,2434.43 3241.44,2434.43"/>
    </edge>
    <edge id=":135_0" function="internal">
        <lane id=":135_0_0" index="0" speed="6.51" length="8.87" shape="1731.42,463.08 1733.53,464.26 1735.53,464.49 1737.42,463.78 1739.18,462.12"/>
    </edge>
    <edge id=":135_1" function="internal">
        <lane id=":135_1_0" index="0" speed="13.89" length="10.92" shape="1732.57,470.81 1739.18,462.12"/>
    </edge>
    <edge id=":136_0" function="internal">
        <lane id=":136_0_0" index="0" speed="13.89" length="0.30" shape="1122.21,2321.56 1122.51,2321.52"/>
    </edge>
    <edge id=":137_0" function="internal">
        <lane id=":137_0_0" index="0" speed="13.89" length="0.29" shape="1406.10,2278.19 1406.38,2278.15"/>
    </edge>
    <edge id=":138_0" function="internal">
        <lane id=":138_0_0" index="0" speed="13.89" length="0.10" shape="960.50,3228.09 960.50,3228.09"/>
    </edge>
    <edge id=":141_0" function="internal">
        <lane id=":141_0_0" index="0" speed="13.89" length="0.28" shape="3661.44,3050.19 3661.29,3049.95"/>
    </edge>
    <edge id=":142_0" function="internal">
        <lane id=":142_0_0" index="0" speed="13.89" length="0.28" shape="1183.55,3221.17 1183.83,3221.19"/>
    </edge>
    <edge id=":143_0" function="internal">
        <lane id=":143_0_0" index="0" speed="13.89" length="0.25" shape="1968.02,3195.65 1968.28,3195.63"/>
    </edge>
    <edge id=":144_0" function="internal">
        <lane id=":144_0_0" index="0" speed="13.89" length="0.30" shape="3608.41,2945.76 3608.57,2946.02"/>
    </edge>
    <edge id=":145_0" function="internal">
        <lane id=":145_0_0" index="0" speed="13.89" length="0.29" shape="3671.63,3044.87 3671.79,3045.11"/>
    </edge>
    <edge id=":147_0" function="internal">
        <lane id=":147_0_0" index="0" speed="13.89" length="0.27" shape="3598.95,2951.17 3598.81,2950.95"/>
    </edge>
    <edge id=":149_0" function="internal">
        <lane id=":149_0_0" index="0" speed="13.89" length="0.29" shape="3379.60,2630.57 3379.42,2630.35"/>
    </edge>
    <edge id=":150_0" function="internal">
        <lane id=":150_0_0" index="0" speed="13.89" length="0.29" shape="3387.30,2624.43 3387.48,2624.65"/>
    </edge>
    <edge id=":152_0" function="internal">
        <lane id=":152_0_0" index="0" speed="13.89" length="0.29" shape="3118.52,2306.98 3118.70,2307.20"/>
    </edge>
    <edge id=":155_0" function="internal">
        <lane id=":155_0_0" index="0" speed="13.89" length="0.28" shape="3110.63,2312.94 3110.45,2312.72"/>
    </edge>
    <edge id=":156_0" function="internal">
        <lane id=":156_0_0" index="0" speed="13.89" length="0.26" shape="1391.05,2597.64 1390.79,2597.68"/>
    </edge>
    <edge id=":157_0" function="internal">
        <lane id=":157_0_0" index="0" speed="6.48" length="9.03" shape="1015.46,2657.23 1013.08,2657.92 1011.50,2659.21 1010.73,2661.09 1010.76,2663.57"/>
    </edge>
    <edge id=":157_1" function="internal">
        <lane id=":157_1_0" index="0" speed="13.89" length="11.18" shape="1008.96,2652.54 1010.76,2663.57"/>
    </edge>
    <edge id=":160_0" function="internal">
        <lane id=":160_0_0" index="0" speed="13.89" length="11.17" shape="3783.54,3349.15 3782.25,3338.05"/>
    </edge>
    <edge id=":160_1" function="internal">
        <lane id=":160_1_0" index="0" speed="6.41" length="9.04" shape="3783.54,3349.15 3783.63,3346.66 3784.51,3344.83 3786.16,3343.67 3788.60,3343.17"/>
    </edge>
    <edge id=":163_0" function="internal">
        <lane id=":163_0_0" index="0" speed="13.89" length="10.97" shape="3785.16,3367.64 3784.35,3356.71"/>
    </edge>
    <edge id=":163_1" function="internal">
        <lane id=":163_1_0" index="0" speed="6.51" length="4.22" shape="3790.43,3361.69 3787.99,3361.56 3786.39,3360.80"/>
    </edge>
    <edge id=":163_2" function="internal">
        <lane id=":163_2_0" index="0" speed="6.51" length="4.72" shape="3786.39,3360.80 3786.17,3360.69 3784.95,3359.07 3784.35,3356.71"/>
    </edge>
    <edge id=":168_0" function="internal">
        <lane id=":168_0_0" index="0" speed="13.89" length="0.30" shape="1442.16,2287.37 1441.86,2287.41"/>
    </edge>
    <edge id=":172_0" function="internal">
        <lane id=":172_0_0" index="0" speed="13.89" length="0.30" shape="1442.17,2272.75 1442.47,2272.71"/>
    </edge>
    <edge id=":174_0" function="internal">
        <lane id=":174_0_0" index="0" speed="13.89" length="0.28" shape="1415.65,2276.59 1415.93,2276.55"/>
    </edge>
    <edge id=":176_0" function="internal">
        <lane id=":176_0_0" index="0" speed="13.89" length="0.28" shape="1031.29,3069.59 1031.25,3069.31"/>
    </edge>
    <edge id=":177_0" function="internal">
        <lane id=":177_0_0" index="0" speed="13.89" length="2.52" shape="999.49,2828.59 999.20,2826.09"/>
    </edge>
    <edge id=":177_1" function="internal">
        <lane id=":177_1_0" index="0" speed="13.89" length="2.52" shape="999.32,2828.60 999.34,2827.85 999.35,2827.34 999.31,2826.83 999.20,2826.09"/>
    </edge>
    <edge id=":178_0" function="internal">
        <lane id=":178_0_0" index="0" speed="13.89" length="0.29" shape="2200.33,2622.80 2200.37,2623.10"/>
    </edge>
    <edge id=":179_0" function="internal">
        <lane id=":179_0_0" index="0" speed="6.76" length="8.48" shape="2414.30,3060.79 2415.81,3062.67 2417.50,3063.77 2419.39,3064.09 2421.47,3063.63"/>
    </edge>
    <edge id=":179_1" function="internal">
        <lane id=":179_1_0" index="0" speed="13.89" length="10.03" shape="2412.05,3067.06 2421.47,3063.63"/>
    </edge>
    <edge id=":18_0" function="internal">
        <lane id=":18_0_0" index="0" speed="6.43" length="9.03" shape="3624.42,3009.45 3622.73,3007.62 3620.88,3006.80 3618.86,3006.98 3616.67,3008.17"/>
    </edge>
    <edge id=":18_1" function="internal">
        <lane id=":18_1_0" index="0" speed="13.89" length="11.30" shape="3624.42,3009.45 3617.98,3000.17"/>
    </edge>
    <edge id=":18_2" function="internal">
        <lane id=":18_2_0" index="0" speed="13.89" length="11.30" shape="3625.76,3001.45 3616.67,3008.17"/>
    </edge>
    <edge id=":18_3" function="internal">
        <lane id=":18_3_0" index="0" speed="6.46" length="4.16" shape="3625.76,3001.45 3623.57,3002.62 3621.89,3002.77"/>
    </edge>
    <edge id=":18_4" function="internal">
        <lane id=":18_4_0" index="0" speed="6.46" length="4.87" shape="3621.89,3002.77 3621.54,3002.80 3619.68,3001.98 3617.98,3000.17"/>
    </edge>
    <edge id=":181_0" function="internal">
        <lane id=":181_0_0" index="0" speed="11.44" length="6.72" shape="2995.82,1677.00 2997.80,1676.69 2999.20,1676.46 3000.45,1675.93 3001.97,1674.73"/>
    </edge>
    <edge id=":181_1" function="internal">
        <lane id=":181_1_0" index="0" speed="13.89" length="6.75" shape="2998.35,1680.34 2999.21,1678.53 2999.81,1677.27 3000.59,1676.15 3001.97,1674.73"/>
    </edge>
    <edge id=":182_0" function="internal">
        <lane id=":182_0_0" index="0" speed="13.89" length="0.47" shape="2930.90,1658.07 2931.01,1658.15 2931.08,1658.22 2931.15,1658.29 2931.23,1658.40"/>
    </edge>
    <edge id=":19_0" function="internal">
        <lane id=":19_0_0" index="0" speed="13.89" length="0.30" shape="3609.59,3013.58 3609.37,3013.78"/>
    </edge>
    <edge id=":196_0" function="internal">
        <lane id=":196_0_0" index="0" speed="13.89" length="0.30" shape="1419.50,2592.69 1419.20,2592.74"/>
    </edge>
    <edge id=":2_0" function="internal">
        <lane id=":2_0_0" index="0" speed="13.89" length="0.25" shape="2303.91,1277.66 2303.69,1277.53"/>
    </edge>
    <edge id=":20_0" function="internal">
        <lane id=":20_0_0" index="0" speed="13.89" length="7.10" shape="2469.65,3211.11 2470.45,3213.02 2471.28,3214.19 2472.35,3215.22 2473.86,3216.70"/>
    </edge>
    <edge id=":20_1" function="internal">
        <lane id=":20_1_0" index="0" speed="4.67" length="1.94" shape="2470.00,3218.13 2470.31,3216.21"/>
    </edge>
    <edge id=":20_2" function="internal">
        <lane id=":20_2_0" index="0" speed="4.67" length="4.63" shape="2470.31,3216.21 2470.33,3216.06 2471.09,3215.14 2472.27,3215.35 2473.86,3216.70"/>
    </edge>
    <edge id=":201_0" function="internal">
        <lane id=":201_0_0" index="0" speed="13.89" length="0.29" shape="2370.42,2407.05 2370.14,2407.15"/>
    </edge>
    <edge id=":202_0" function="internal">
        <lane id=":202_0_0" index="0" speed="6.56" length="8.87" shape="1862.66,2510.94 1863.53,2513.18 1864.92,2514.63 1866.83,2515.31 1869.26,2515.20"/>
    </edge>
    <edge id=":202_1" function="internal">
        <lane id=":202_1_0" index="0" speed="13.89" length="10.90" shape="1862.66,2510.94 1865.04,2521.58"/>
    </edge>
    <edge id=":203_0" function="internal">
        <lane id=":203_0_0" index="0" speed="13.89" length="0.10" shape="1889.24,2513.17 1889.24,2513.17"/>
    </edge>
    <edge id=":205_0" function="internal">
        <lane id=":205_0_0" index="0" speed="13.89" length="11.16" shape="1847.93,2524.32 1845.19,2513.51"/>
    </edge>
    <edge id=":205_1" function="internal">
        <lane id=":205_1_0" index="0" speed="6.41" length="9.04" shape="1840.92,2520.08 1843.28,2519.27 1844.78,2517.91 1845.41,2515.99 1845.19,2513.51"/>
    </edge>
    <edge id=":206_0" function="internal">
        <lane id=":206_0_0" index="0" speed="6.60" length="8.68" shape="1851.24,2536.29 1850.29,2534.20 1848.87,2532.85 1846.95,2532.24 1844.55,2532.37"/>
    </edge>
    <edge id=":206_1" function="internal">
        <lane id=":206_1_0" index="0" speed="13.89" length="10.50" shape="1851.24,2536.29 1848.43,2526.17"/>
    </edge>
    <edge id=":211_0" function="internal">
        <lane id=":211_0_0" index="0" speed="6.52" length="8.95" shape="3250.66,2503.87 3252.30,2502.06 3252.97,2500.15 3252.67,2498.14 3251.41,2496.03"/>
    </edge>
    <edge id=":211_1" function="internal">
        <lane id=":211_1_0" index="0" speed="13.89" length="11.06" shape="3250.66,2503.87 3259.20,2496.85"/>
    </edge>
    <edge id=":214_0" function="internal">
        <lane id=":214_0_0" index="0" speed="13.89" length="0.24" shape="3121.45,1676.25 3121.28,1676.41"/>
    </edge>
    <edge id=":217_0" function="internal">
        <lane id=":217_0_0" index="0" speed="13.89" length="0.30" shape="2971.84,2100.94 2971.98,2101.20"/>
    </edge>
    <edge id=":218_0" function="internal">
        <lane id=":218_0_0" index="0" speed="6.42" length="8.98" shape="2429.43,3076.90 2427.25,3077.99 2425.97,3079.53 2425.60,3081.53 2426.13,3083.98"/>
    </edge>
    <edge id=":218_1" function="internal">
        <lane id=":218_1_0" index="0" speed="13.89" length="11.19" shape="2429.43,3076.90 2418.77,3080.33"/>
    </edge>
    <edge id=":219_0" function="internal">
        <lane id=":219_0_0" index="0" speed="13.89" length="0.29" shape="2114.05,3183.93 2113.77,3184.02"/>
    </edge>
    <edge id=":223_0" function="internal">
        <lane id=":223_0_0" index="0" speed="13.89" length="0.28" shape="2589.80,3004.42 2590.06,3004.34"/>
    </edge>
    <edge id=":224_0" function="internal">
        <lane id=":224_0_0" index="0" speed="13.89" length="0.25" shape="3580.35,3037.95 3580.15,3038.11"/>
    </edge>
    <edge id=":225_0" function="internal">
        <lane id=":225_0_0" index="0" speed="6.53" length="8.96" shape="3578.92,3039.07 3577.23,3040.83 3576.51,3042.72 3576.74,3044.75 3577.93,3046.90"/>
    </edge>
    <edge id=":225_1" function="internal">
        <lane id=":225_1_0" index="0" speed="13.89" length="11.05" shape="3578.92,3039.07 3570.22,3045.89"/>
    </edge>
    <edge id=":228_0" function="internal">
        <lane id=":228_0_0" index="0" speed="13.89" length="0.10" shape="3601.85,3002.13 3601.85,3002.13"/>
    </edge>
    <edge id=":23_0" function="internal">
        <lane id=":23_0_0" index="0" speed="13.89" length="0.30" shape="3288.36,3263.63 3288.58,3263.44"/>
    </edge>
    <edge id=":239_0" function="internal">
        <lane id=":239_0_0" index="0" speed="13.89" length="0.23" shape="964.49,3208.20 964.56,3208.20 964.61,3208.20 964.66,3208.19 964.72,3208.18"/>
    </edge>
    <edge id=":242_0" function="internal">
        <lane id=":242_0_0" index="0" speed="13.89" length="11.22" shape="3610.82,905.98 3602.72,898.22"/>
    </edge>
    <edge id=":242_1" function="internal">
        <lane id=":242_1_0" index="0" speed="6.44" length="9.03" shape="3602.81,906.08 3604.31,904.10 3604.80,902.12 3604.27,900.16 3602.72,898.22"/>
    </edge>
    <edge id=":25_0" function="internal">
        <lane id=":25_0_0" index="0" speed="13.89" length="0.24" shape="3771.25,2885.69 3771.06,2885.84"/>
    </edge>
    <edge id=":252_0" function="internal">
        <lane id=":252_0_0" index="0" speed="13.89" length="9.57" shape="1928.68,2511.90 1925.93,2512.49 1924.12,2513.19 1922.37,2514.09 1919.77,2515.26"/>
    </edge>
    <edge id=":252_1" function="internal">
        <lane id=":252_1_0" index="0" speed="4.14" length="1.85" shape="1919.21,2511.49 1920.76,2512.22 1920.84,2512.32"/>
    </edge>
    <edge id=":252_2" function="internal">
        <lane id=":252_2_0" index="0" speed="4.14" length="3.72" shape="1920.84,2512.32 1921.38,2513.09 1921.05,2514.10 1919.77,2515.26"/>
    </edge>
    <edge id=":253_0" function="internal">
        <lane id=":253_0_0" index="0" speed="13.89" length="0.10" shape="1894.74,2522.03 1894.74,2522.03"/>
    </edge>
    <edge id=":26_0" function="internal">
        <lane id=":26_0_0" index="0" speed="13.89" length="8.69" shape="2851.65,1813.76 2852.57,1811.38 2852.94,1809.65 2852.99,1807.86 2853.00,1805.28"/>
    </edge>
    <edge id=":26_1" function="internal">
        <lane id=":26_1_0" index="0" speed="13.89" length="8.70" shape="2851.65,1813.76 2852.76,1811.45 2853.74,1809.98 2854.96,1808.67 2856.76,1806.82"/>
    </edge>
    <edge id=":26_2" function="internal">
        <lane id=":26_2_0" index="0" speed="5.26" length="5.56" shape="2851.65,1813.76 2852.41,1812.61 2853.45,1812.00 2854.76,1811.94 2856.35,1812.42"/>
    </edge>
    <edge id=":27_0" function="internal">
        <lane id=":27_0_0" index="0" speed="13.89" length="0.26" shape="2862.04,1814.91 2862.28,1815.01"/>
    </edge>
    <edge id=":272_0" function="internal">
        <lane id=":272_0_0" index="0" speed="13.89" length="0.27" shape="3577.33,929.95 3577.53,929.76"/>
    </edge>
    <edge id=":273_0" function="internal">
        <lane id=":273_0_0" index="0" speed="13.89" length="0.30" shape="3589.68,918.38 3589.90,918.18"/>
    </edge>
    <edge id=":282_0" function="internal">
        <lane id=":282_0_0" index="0" speed="13.89" length="0.28" shape="2594.11,3018.91 2593.85,3019.00"/>
    </edge>
    <edge id=":284_0" function="internal">
        <lane id=":284_0_0" index="0" speed="13.89" length="0.30" shape="960.85,2532.58 960.81,2532.28"/>
    </edge>
    <edge id=":286_0" function="internal">
        <lane id=":286_0_0" index="0" speed="13.89" length="0.10" shape="910.79,2274.32 910.79,2274.32"/>
    </edge>
    <edge id=":287_0" function="internal">
        <lane id=":287_0_0" index="0" speed="13.89" length="0.10" shape="903.27,2228.28 903.27,2228.28"/>
    </edge>
    <edge id=":288_0" function="internal">
        <lane id=":288_0_0" index="0" speed="6.59" length="8.54" shape="926.20,2369.87 925.34,2367.77 923.99,2366.38 922.13,2365.69 919.78,2365.71"/>
    </edge>
    <edge id=":288_1" function="internal">
        <lane id=":288_1_0" index="0" speed="13.89" length="10.30" shape="926.20,2369.87 924.08,2359.79"/>
    </edge>
    <edge id=":289_0" function="internal">
        <lane id=":289_0_0" index="0" speed="13.89" length="11.20" shape="923.51,2356.50 921.62,2345.47"/>
    </edge>
    <edge id=":289_1" function="internal">
        <lane id=":289_1_0" index="0" speed="6.42" length="9.04" shape="916.95,2351.79 919.35,2351.12 920.93,2349.84 921.68,2347.96 921.62,2345.47"/>
    </edge>
    <edge id=":290_0" function="internal">
        <lane id=":290_0_0" index="0" speed="13.89" length="0.28" shape="939.29,2442.11 939.25,2441.83"/>
    </edge>
    <edge id=":291_0" function="internal">
        <lane id=":291_0_0" index="0" speed="13.89" length="0.30" shape="927.31,2374.29 927.23,2373.99"/>
    </edge>
    <edge id=":292_0" function="internal">
        <lane id=":292_0_0" index="0" speed="13.89" length="0.10" shape="944.62,2237.23 944.62,2237.23"/>
    </edge>
    <edge id=":293_0" function="internal">
        <lane id=":293_0_0" index="0" speed="13.89" length="0.30" shape="960.11,2339.35 960.15,2339.65"/>
    </edge>
    <edge id=":294_0" function="internal">
        <lane id=":294_0_0" index="0" speed="13.89" length="0.10" shape="901.32,1945.68 901.32,1945.68"/>
    </edge>
    <edge id=":296_0" function="internal">
        <lane id=":296_0_0" index="0" speed="13.89" length="0.30" shape="974.41,2428.68 974.45,2428.98"/>
    </edge>
    <edge id=":297_0" function="internal">
        <lane id=":297_0_0" index="0" speed="13.89" length="0.26" shape="1000.86,2604.75 1000.90,2605.01"/>
    </edge>
    <edge id=":298_0" function="internal">
        <lane id=":298_0_0" index="0" speed="13.89" length="0.34" shape="635.86,2394.27 635.96,2394.24 636.02,2394.21 636.09,2394.20 636.19,2394.18"/>
    </edge>
    <edge id=":299_0" function="internal">
        <lane id=":299_0_0" index="0" speed="13.89" length="0.10" shape="914.72,2352.08 914.72,2352.08"/>
    </edge>
    <edge id=":3_0" function="internal">
        <lane id=":3_0_0" index="0" speed="13.89" length="0.28" shape="2076.59,1133.60 2076.35,1133.45"/>
    </edge>
    <edge id=":302_0" function="internal">
        <lane id=":302_0_0" index="0" speed="6.52" length="9.01" shape="968.51,2357.85 966.15,2358.61 964.59,2359.94 963.83,2361.83 963.88,2364.28"/>
    </edge>
    <edge id=":302_1" function="internal">
        <lane id=":302_1_0" index="0" speed="13.89" length="11.14" shape="962.18,2353.27 963.88,2364.28"/>
    </edge>
    <edge id=":304_0" function="internal">
        <lane id=":304_0_0" index="0" speed="13.89" length="0.28" shape="1364.39,951.58 1364.56,951.36"/>
    </edge>
    <edge id=":305_0" function="internal">
        <lane id=":305_0_0" index="0" speed="13.89" length="0.29" shape="1690.77,526.71 1690.95,526.47"/>
    </edge>
    <edge id=":306_0" function="internal">
        <lane id=":306_0_0" index="0" speed="13.89" length="0.30" shape="865.51,1949.00 865.49,1948.70"/>
    </edge>
    <edge id=":307_0" function="internal">
        <lane id=":307_0_0" index="0" speed="13.89" length="0.29" shape="896.22,1650.45 896.30,1650.17"/>
    </edge>
    <edge id=":309_0" function="internal">
        <lane id=":309_0_0" index="0" speed="13.89" length="0.30" shape="978.62,2529.60 978.66,2529.90"/>
    </edge>
    <edge id=":310_0" function="internal">
        <lane id=":310_0_0" index="0" speed="13.89" length="0.30" shape="1313.31,1179.51 1313.07,1179.33"/>
    </edge>
    <edge id=":311_0" function="internal">
        <lane id=":311_0_0" index="0" speed="6.51" length="9.06" shape="1268.87,1145.58 1266.73,1144.30 1264.70,1144.02 1262.79,1144.72 1260.98,1146.42"/>
    </edge>
    <edge id=":311_1" function="internal">
        <lane id=":311_1_0" index="0" speed="13.89" length="11.24" shape="1268.12,1137.73 1260.98,1146.42"/>
    </edge>
    <edge id=":312_0" function="internal">
        <lane id=":312_0_0" index="0" speed="13.89" length="0.25" shape="1458.41,1291.34 1458.21,1291.19"/>
    </edge>
    <edge id=":315_0" function="internal">
        <lane id=":315_0_0" index="0" speed="13.89" length="0.29" shape="1399.00,963.00 1398.82,963.23"/>
    </edge>
    <edge id=":316_0" function="internal">
        <lane id=":316_0_0" index="0" speed="13.89" length="0.30" shape="1311.05,1079.48 1310.88,1079.72"/>
    </edge>
    <edge id=":317_0" function="internal">
        <lane id=":317_0_0" index="0" speed="6.47" length="9.03" shape="1280.95,1122.10 1279.74,1124.26 1279.53,1126.29 1280.30,1128.17 1282.07,1129.91"/>
    </edge>
    <edge id=":317_1" function="internal">
        <lane id=":317_1_0" index="0" speed="13.89" length="11.12" shape="1280.95,1122.10 1273.99,1130.77"/>
    </edge>
    <edge id=":318_0" function="internal">
        <lane id=":318_0_0" index="0" speed="13.89" length="0.24" shape="1159.45,1276.77 1159.31,1276.95"/>
    </edge>
    <edge id=":319_0" function="internal">
        <lane id=":319_0_0" index="0" speed="13.89" length="0.10" shape="960.20,1576.19 960.20,1576.19"/>
    </edge>
    <edge id=":32_0" function="internal">
        <lane id=":32_0_0" index="0" speed="13.89" length="0.26" shape="1995.10,1695.39 1994.88,1695.23"/>
    </edge>
    <edge id=":323_0" function="internal">
        <lane id=":323_0_0" index="0" speed="13.89" length="0.29" shape="1228.91,1186.55 1228.73,1186.78"/>
    </edge>
    <edge id=":324_0" function="internal">
        <lane id=":324_0_0" index="0" speed="6.50" length="9.03" shape="1228.67,1123.20 1229.82,1121.01 1229.98,1118.97 1229.17,1117.10 1227.38,1115.39"/>
    </edge>
    <edge id=":324_1" function="internal">
        <lane id=":324_1_0" index="0" speed="13.89" length="11.19" shape="1228.67,1123.20 1235.22,1114.13"/>
    </edge>
    <edge id=":325_0" function="internal">
        <lane id=":325_0_0" index="0" speed="13.89" length="0.10" shape="1176.80,1077.65 1176.80,1077.65"/>
    </edge>
    <edge id=":326_0" function="internal">
        <lane id=":326_0_0" index="0" speed="13.89" length="0.28" shape="1184.60,1057.86 1184.82,1058.02"/>
    </edge>
    <edge id=":327_0" function="internal">
        <lane id=":327_0_0" index="0" speed="6.55" length="8.71" shape="1239.55,1099.01 1241.68,1100.11 1243.66,1100.32 1245.52,1099.63 1247.24,1098.04"/>
    </edge>
    <edge id=":327_1" function="internal">
        <lane id=":327_1_0" index="0" speed="13.89" length="10.61" shape="1240.78,1106.45 1247.24,1098.04"/>
    </edge>
    <edge id=":33_0" function="internal">
        <lane id=":33_0_0" index="0" speed="13.89" length="11.20" shape="1620.60,1410.18 1611.61,1403.49"/>
    </edge>
    <edge id=":33_1" function="internal">
        <lane id=":33_1_0" index="0" speed="6.49" length="9.03" shape="1620.60,1410.18 1618.84,1408.44 1618.07,1406.55 1618.28,1404.52 1619.49,1402.36"/>
    </edge>
    <edge id=":330_0" function="internal">
        <lane id=":330_0_0" index="0" speed="13.89" length="0.24" shape="1764.57,488.34 1764.43,488.54"/>
    </edge>
    <edge id=":338_0" function="internal">
        <lane id=":338_0_0" index="0" speed="6.48" length="9.03" shape="960.31,2340.69 961.03,2343.07 962.33,2344.63 964.23,2345.38 966.71,2345.32"/>
    </edge>
    <edge id=":338_1" function="internal">
        <lane id=":338_1_0" index="0" speed="13.89" length="11.19" shape="960.31,2340.69 961.96,2351.76"/>
    </edge>
    <edge id=":34_0" function="internal">
        <lane id=":34_0_0" index="0" speed="6.19" length="9.05" shape="2076.73,1755.73 2074.55,1754.45 2072.57,1754.25 2070.80,1755.16 2069.24,1757.16"/>
    </edge>
    <edge id=":34_1" function="internal">
        <lane id=":34_1_0" index="0" speed="13.89" length="11.31" shape="2076.73,1755.73 2067.75,1748.87"/>
    </edge>
    <edge id=":341_0" function="internal">
        <lane id=":341_0_0" index="0" speed="13.89" length="10.48" shape="3053.80,2252.48 3052.72,2249.62 3052.00,2247.51 3051.04,2245.55 3049.23,2243.15"/>
    </edge>
    <edge id=":341_1" function="internal">
        <lane id=":341_1_0" index="0" speed="13.89" length="10.47" shape="3056.87,2250.28 3054.56,2248.29 3052.88,2246.88 3051.28,2245.39 3049.23,2243.15"/>
    </edge>
    <edge id=":342_0" function="internal">