<?xml version="1.0" encoding="UTF-8"?>

<!-- generated on 2025-06-12 18:09:23 by Eclipse SUMO netedit Version 1.22.0
<neteditConfiguration xmlns:xsi="http://www.w3.org/2001/XMLSchema-instance" xsi:noNamespaceSchemaLocation="http://sumo.dlr.de/xsd/neteditConfiguration.xsd">

    <input>
        <sumo-net-file value="C:\ITS\Traffic Light Control\Simulation Lab\CauGiay\sumo\son_region\vung_03\vung03.net.xml"/>
    </input>

    <output>
        <output-file value="C:\ITS\Traffic Light Control\Simulation Lab\CauGiay\sumo\son_region\vung_03\vung03.net.xml"/>
    </output>

    <processing>
        <geometry.min-radius.fix.railways value="false"/>
        <geometry.max-grade.fix value="false"/>
        <offset.disable-normalization value="true"/>
        <lefthand value="0"/>
    </processing>

    <junctions>
        <no-turnarounds value="true"/>
        <junctions.corner-detail value="5"/>
        <junctions.limit-turn-speed value="5.50"/>
        <rectangular-lane-cut value="0"/>
    </junctions>

    <pedestrian>
        <walkingareas value="0"/>
    </pedestrian>

</neteditConfiguration>
-->

<net version="1.20" junctionCornerDetail="5" limitTurnSpeed="5.50" xmlns:xsi="http://www.w3.org/2001/XMLSchema-instance" xsi:noNamespaceSchemaLocation="http://sumo.dlr.de/xsd/net_file.xsd">

    <location netOffset="-582634.77,-2322939.88" convBoundary="451.93,370.03,1983.87,1915.17" origBoundary="105.795151,20.960406,105.816862,21.045988" projParameter="+proj=utm +zone=48 +ellps=WGS84 +datum=WGS84 +units=m +no_defs"/>

    <type id="highway.primary" priority="12" numLanes="2" speed="27.78" disallow="tram rail_urban rail rail_electric rail_fast ship container cable_car subway aircraft wheelchair scooter drone" oneway="0"/>
    <type id="highway.primary_link" priority="7" numLanes="1" speed="22.22" disallow="tram rail_urban rail rail_electric rail_fast ship container cable_car subway aircraft wheelchair scooter drone" oneway="0"/>
    <type id="highway.secondary" priority="11" numLanes="1" speed="27.78" disallow="tram rail_urban rail rail_electric rail_fast ship container cable_car subway aircraft wheelchair scooter drone" oneway="0"/>

    <edge id=":10171614353_0" function="internal">
        <lane id=":10171614353_0_0" index="0" disallow="tram rail_urban rail rail_electric rail_fast ship container cable_car subway aircraft wheelchair scooter drone" speed="20.84" length="25.30" width="6.00" shape="1408.24,1593.89 1402.75,1598.50 1399.11,1604.42 1396.66,1610.29 1394.72,1614.70"/>
    </edge>
    <edge id=":10171614353_1" function="internal">
        <lane id=":10171614353_1_0" index="0" disallow="tram rail_urban rail rail_electric rail_fast ship container cable_car subway aircraft wheelchair scooter drone" speed="20.84" length="23.02" shape="1408.24,1593.89 1388.40,1605.36"/>
        <lane id=":10171614353_1_1" index="1" disallow="tram rail_urban rail rail_electric rail_fast ship container cable_car subway aircraft wheelchair scooter drone" speed="20.84" length="23.02" shape="1406.74,1591.06 1386.72,1602.63"/>
    </edge>
    <edge id=":10171614353_3" function="internal">
        <lane id=":10171614353_3_0" index="0" disallow="tram rail_urban rail rail_electric rail_fast ship container cable_car subway aircraft wheelchair scooter drone" speed="17.57" length="20.33" shape="1384.27,1583.60 1388.19,1584.85 1392.65,1586.54 1397.79,1587.24 1403.80,1585.48"/>
    </edge>
    <edge id=":10171614353_4" function="internal">
        <lane id=":10171614353_4_0" index="0" speed="11.89" length="41.11" width="6.00" shape="1384.27,1583.60 1394.81,1587.36 1399.73,1594.25 1399.53,1603.59 1394.72,1614.70"/>
    </edge>
    <edge id=":10171614353_5" function="internal">
        <lane id=":10171614353_5_0" index="0" speed="8.49" length="25.70" shape="1384.27,1583.60 1390.40,1586.48 1392.92,1591.71 1391.72,1597.64 1386.72,1602.63"/>
    </edge>
    <edge id=":10171614353_6" function="internal">
        <lane id=":10171614353_6_0" index="0" disallow="tram rail_urban rail rail_electric rail_fast ship container cable_car subway aircraft wheelchair scooter drone" speed="20.84" length="23.46" shape="1383.35,1597.19 1403.80,1585.48"/>
        <lane id=":10171614353_6_1" index="1" disallow="tram rail_urban rail rail_electric rail_fast ship container cable_car subway aircraft wheelchair scooter drone" speed="20.84" length="23.46" shape="1385.03,1599.91 1405.29,1588.31"/>
    </edge>
    <edge id=":10171614353_8" function="internal">
        <lane id=":10171614353_8_0" index="0" speed="7.77" length="2.13" width="6.00" shape="1385.03,1599.91 1387.14,1599.57"/>
    </edge>
    <edge id=":10171614353_9" function="internal">
        <lane id=":10171614353_9_0" index="0" speed="7.77" length="21.88" width="6.00" shape="1387.14,1599.57 1390.84,1598.97 1394.94,1602.30 1396.51,1608.13 1394.72,1614.70"/>
    </edge>
    <edge id=":10180671333_0" function="internal">
        <lane id=":10180671333_0_0" index="0" disallow="tram rail_urban rail rail_electric rail_fast ship container cable_car subway aircraft wheelchair scooter drone" speed="16.07" length="15.64" width="5.00" shape="1042.51,1181.80 1038.36,1179.45 1034.67,1178.84 1031.16,1179.05 1027.55,1179.16"/>
    </edge>
    <edge id=":10180671333_1" function="internal">
        <lane id=":10180671333_1_0" index="0" disallow="tram rail_urban rail rail_electric rail_fast ship container cable_car subway aircraft wheelchair scooter drone" speed="27.78" length="15.12" shape="1042.51,1181.80 1038.69,1179.37 1035.70,1178.27 1032.75,1177.13 1029.03,1174.57"/>
        <lane id=":10180671333_1_1" index="1" disallow="tram rail_urban rail rail_electric rail_fast ship container cable_car subway aircraft wheelchair scooter drone" speed="27.78" length="15.12" shape="1042.51,1181.80 1031.10,1172.14"/>
        <lane id=":10180671333_1_2" index="2" disallow="tram rail_urban rail rail_electric rail_fast ship container cable_car subway aircraft wheelchair scooter drone" speed="27.78" length="15.12" shape="1044.50,1179.30 1033.18,1169.70"/>
        <lane id=":10180671333_1_3" index="3" disallow="tram rail_urban rail rail_electric rail_fast ship container cable_car subway aircraft wheelchair scooter drone" speed="27.78" length="15.12" shape="1044.50,1179.30 1041.36,1176.12 1039.81,1173.36 1038.30,1170.56 1035.26,1167.27"/>
    </edge>
    <edge id=":10180671400_0" function="internal">
        <lane id=":10180671400_0_0" index="0" disallow="tram rail_urban rail rail_electric rail_fast ship container cable_car subway aircraft wheelchair scooter drone" speed="27.78" length="0.30" shape="1298.26,1477.69 1298.35,1477.87"/>
        <lane id=":10180671400_0_1" index="1" disallow="tram rail_urban rail rail_electric rail_fast ship container cable_car subway aircraft wheelchair scooter drone" speed="27.78" length="0.30" shape="1295.41,1479.15 1295.53,1479.39"/>
        <lane id=":10180671400_0_2" index="2" disallow="tram rail_urban rail rail_electric rail_fast ship container cable_car subway aircraft wheelchair scooter drone" speed="27.78" length="0.30" shape="1292.56,1480.60 1292.71,1480.90"/>
        <lane id=":10180671400_0_3" index="3" disallow="tram rail_urban rail rail_electric rail_fast ship container cable_car subway aircraft wheelchair scooter drone" speed="27.78" length="0.30" shape="1289.71,1482.06 1289.89,1482.41"/>
    </edge>
    <edge id=":10296445822_0" function="internal">
        <lane id=":10296445822_0_0" index="0" disallow="tram rail_urban rail rail_electric rail_fast ship container cable_car subway aircraft wheelchair scooter drone" speed="11.28" length="26.88" width="4.00" shape="1334.09,1644.78 1327.20,1641.90 1322.67,1637.61 1320.48,1631.93 1320.63,1624.85"/>
    </edge>
    <edge id=":10296445822_1" function="internal">
        <lane id=":10296445822_1_0" index="0" disallow="tram rail_urban rail rail_electric rail_fast ship container cable_car subway aircraft wheelchair scooter drone" speed="8.67" length="26.38" shape="1334.09,1644.78 1326.87,1641.51 1322.19,1636.74 1321.32,1631.45 1325.55,1626.63"/>
        <lane id=":10296445822_1_1" index="1" disallow="tram rail_urban rail rail_electric rail_fast ship container cable_car subway aircraft wheelchair scooter drone" speed="8.01" length="22.20" shape="1334.09,1644.78 1328.06,1642.01 1324.21,1637.95 1323.58,1633.46 1327.18,1629.39"/>
        <lane id=":10296445822_1_2" index="2" disallow="tram rail_urban rail rail_electric rail_fast ship container cable_car subway aircraft wheelchair scooter drone" speed="7.86" length="21.32" shape="1334.09,1644.78 1326.91,1642.13 1323.63,1639.14 1324.26,1635.81 1328.81,1632.14"/>
    </edge>
    <edge id=":10296445822_4" function="internal">
        <lane id=":10296445822_4_0" index="0" disallow="tram rail_urban rail rail_electric rail_fast ship container cable_car subway aircraft wheelchair scooter drone" speed="8.73" length="26.39" width="4.00" shape="1333.63,1640.31 1327.28,1641.89 1322.82,1638.90 1320.52,1632.75 1320.63,1624.85"/>
    </edge>
    <edge id=":10296445822_5" function="internal">
        <lane id=":10296445822_5_0" index="0" disallow="tram rail_urban rail rail_electric rail_fast ship container cable_car subway aircraft wheelchair scooter drone" speed="3.61" length="4.51" shape="1330.38,1634.80 1328.99,1634.72 1328.26,1634.26 1328.20,1633.40 1328.81,1632.14"/>
    </edge>
    <edge id=":10296445823_0" function="internal">
        <lane id=":10296445823_0_0" index="0" disallow="tram rail_urban rail rail_electric rail_fast ship container cable_car subway aircraft wheelchair scooter drone" speed="8.71" length="8.15" width="4.00" shape="1357.53,1652.05 1356.50,1650.78 1355.00,1649.74 1353.00,1648.94 1350.53,1648.36"/>
    </edge>
    <edge id=":10296445823_1" function="internal">
        <lane id=":10296445823_1_0" index="0" disallow="tram rail_urban rail rail_electric rail_fast ship container cable_car subway aircraft wheelchair scooter drone" speed="27.78" length="8.86" shape="1357.53,1652.05 1353.21,1644.27"/>
        <lane id=":10296445823_1_1" index="1" disallow="tram rail_urban rail rail_electric rail_fast ship container cable_car subway aircraft wheelchair scooter drone" speed="27.78" length="8.86" shape="1360.31,1650.47 1356.01,1642.71"/>
        <lane id=":10296445823_1_2" index="2" disallow="tram rail_urban rail rail_electric rail_fast ship container cable_car subway aircraft wheelchair scooter drone" speed="27.78" length="8.86" shape="1363.10,1648.89 1358.81,1641.16"/>
        <lane id=":10296445823_1_3" index="3" disallow="tram rail_urban rail rail_electric rail_fast ship container cable_car subway aircraft wheelchair scooter drone" speed="27.78" length="8.86" shape="1365.88,1647.32 1361.61,1639.61"/>
    </edge>
    <edge id=":10296445824_0" function="internal">
        <lane id=":10296445824_0_0" index="0" disallow="tram rail_urban rail rail_electric rail_fast ship container cable_car subway aircraft wheelchair scooter drone" speed="27.78" length="12.68" shape="1331.88,1596.65 1325.97,1585.55"/>
        <lane id=":10296445824_0_1" index="1" disallow="tram rail_urban rail rail_electric rail_fast ship container cable_car subway aircraft wheelchair scooter drone" speed="27.78" length="12.68" shape="1334.71,1595.16 1328.77,1583.99"/>
        <lane id=":10296445824_0_2" index="2" disallow="tram rail_urban rail rail_electric rail_fast ship container cable_car subway aircraft wheelchair scooter drone" speed="27.78" length="12.68" shape="1337.54,1593.66 1331.56,1582.44"/>
        <lane id=":10296445824_0_3" index="3" disallow="tram rail_urban rail rail_electric rail_fast ship container cable_car subway aircraft wheelchair scooter drone" speed="27.78" length="12.68" shape="1340.36,1592.17 1334.36,1580.89"/>
    </edge>
    <edge id=":10296445824_4" function="internal">
        <lane id=":10296445824_4_0" index="0" disallow="tram rail_urban rail rail_electric rail_fast ship container cable_car subway aircraft wheelchair scooter drone" speed="11.26" length="11.79" shape="1327.28,1596.96 1327.86,1594.03 1327.83,1591.16 1327.20,1588.33 1325.97,1585.55"/>
        <lane id=":10296445824_4_1" index="1" disallow="tram rail_urban rail rail_electric rail_fast ship container cable_car subway aircraft wheelchair scooter drone" speed="11.90" length="13.24" shape="1327.28,1596.96 1328.51,1592.33 1329.17,1588.62 1329.25,1585.85 1328.77,1583.99"/>
    </edge>
    <edge id=":106078638_0" function="internal">
        <lane id=":106078638_0_0" index="0" disallow="tram rail_urban rail rail_electric rail_fast ship container cable_car subway aircraft wheelchair scooter drone" speed="13.08" length="15.76" shape="775.54,920.04 771.60,917.38 767.93,916.59 764.36,916.80 760.70,917.13"/>
    </edge>
    <edge id=":106078638_1" function="internal">
        <lane id=":106078638_1_0" index="0" disallow="tram rail_urban rail rail_electric rail_fast ship container cable_car subway aircraft wheelchair scooter drone" speed="27.78" length="17.48" shape="775.54,920.04 762.70,908.32"/>
        <lane id=":106078638_1_1" index="1" disallow="tram rail_urban rail rail_electric rail_fast ship container cable_car subway aircraft wheelchair scooter drone" speed="27.78" length="17.48" shape="777.74,917.71 764.85,905.95"/>
        <lane id=":106078638_1_2" index="2" disallow="tram rail_urban rail rail_electric rail_fast ship container cable_car subway aircraft wheelchair scooter drone" speed="27.78" length="17.48" shape="779.93,915.39 767.00,903.58"/>
        <lane id=":106078638_1_3" index="3" disallow="tram rail_urban rail rail_electric rail_fast ship container cable_car subway aircraft wheelchair scooter drone" speed="27.78" length="17.48" shape="782.13,913.06 769.15,901.21"/>
    </edge>
    <edge id=":106078638_5" function="internal">
        <lane id=":106078638_5_0" index="0" disallow="tram rail_urban rail rail_electric rail_fast ship container cable_car subway aircraft wheelchair scooter drone" speed="5.47" length="9.82" shape="760.62,913.88 763.75,913.47 765.14,912.40 764.79,910.69 762.70,908.32"/>
        <lane id=":106078638_5_1" index="1" disallow="tram rail_urban rail rail_electric rail_fast ship container cable_car subway aircraft wheelchair scooter drone" speed="6.53" length="14.76" shape="760.62,913.88 765.63,913.28 768.00,911.76 767.74,909.31 764.85,905.95"/>
        <lane id=":106078638_5_2" index="2" disallow="tram rail_urban rail rail_electric rail_fast ship container cable_car subway aircraft wheelchair scooter drone" speed="7.45" length="19.72" shape="760.62,913.88 767.51,913.09 770.86,911.11 770.69,907.94 767.00,903.58"/>
    </edge>
    <edge id=":106078638_8" function="internal">
        <lane id=":106078638_8_0" index="0" disallow="tram rail_urban rail rail_electric rail_fast ship container cable_car subway aircraft wheelchair scooter drone" speed="3.67" length="4.74" shape="760.62,913.88 761.86,914.66 762.29,915.46 761.90,916.28 760.70,917.13"/>
    </edge>
    <edge id=":11420299574_0" function="internal">
        <lane id=":11420299574_0_0" index="0" disallow="tram rail_urban rail rail_electric rail_fast ship container cable_car subway aircraft wheelchair scooter drone" speed="27.78" length="0.16" shape="1421.21,1587.08 1421.12,1587.12"/>
        <lane id=":11420299574_0_1" index="1" disallow="tram rail_urban rail rail_electric rail_fast ship container cable_car subway aircraft wheelchair scooter drone" speed="27.78" length="0.16" shape="1419.83,1584.19 1419.64,1584.29"/>
    </edge>
    <edge id=":11420299574_2" function="internal">
        <lane id=":11420299574_2_0" index="0" disallow="tram rail_urban rail rail_electric rail_fast ship container cable_car subway aircraft wheelchair scooter drone" speed="27.78" length="0.39" shape="1416.66,1578.62 1417.06,1578.42"/>
        <lane id=":11420299574_2_1" index="1" disallow="tram rail_urban rail rail_electric rail_fast ship container cable_car subway aircraft wheelchair scooter drone" speed="27.78" length="0.39" shape="1418.15,1581.46 1418.45,1581.31"/>
    </edge>
    <edge id=":1498111685_0" function="internal">
        <lane id=":1498111685_0_0" index="0" disallow="tram rail_urban rail rail_electric rail_fast ship container cable_car subway aircraft wheelchair scooter drone" speed="27.78" length="11.10" shape="1052.02,1189.32 1043.20,1182.35"/>
        <lane id=":1498111685_0_1" index="1" disallow="tram rail_urban rail rail_electric rail_fast ship container cable_car subway aircraft wheelchair scooter drone" speed="27.78" length="11.10" shape="1054.12,1186.92 1045.54,1180.12"/>
    </edge>
    <edge id=":1498111685_2" function="internal">
        <lane id=":1498111685_2_0" index="0" disallow="tram rail_urban rail rail_electric rail_fast ship container cable_car subway aircraft wheelchair scooter drone" speed="8.07" length="9.17" shape="1054.12,1186.92 1052.81,1185.33 1052.07,1183.38 1051.91,1181.07 1052.32,1178.39"/>
    </edge>
    <edge id=":1731422785_0" function="internal">
        <lane id=":1731422785_0_0" index="0" disallow="tram rail_urban rail rail_electric rail_fast ship container cable_car subway aircraft wheelchair scooter drone" speed="27.78" length="0.28" shape="1428.18,1583.74 1427.94,1583.85"/>
        <lane id=":1731422785_0_1" index="1" disallow="tram rail_urban rail rail_electric rail_fast ship container cable_car subway aircraft wheelchair scooter drone" speed="27.78" length="0.28" shape="1426.82,1580.84 1426.56,1580.97"/>
    </edge>
    <edge id=":1731422785_2" function="internal">
        <lane id=":1731422785_2_0" index="0" disallow="tram rail_urban rail rail_electric rail_fast ship container cable_car subway aircraft wheelchair scooter drone" speed="27.78" length="0.32" shape="1423.79,1575.20 1424.09,1575.05"/>
        <lane id=":1731422785_2_1" index="1" disallow="tram rail_urban rail rail_electric rail_fast ship container cable_car subway aircraft wheelchair scooter drone" speed="27.78" length="0.32" shape="1425.17,1578.08 1425.45,1577.95"/>
    </edge>
    <edge id=":1901865134_0" function="internal">
        <lane id=":1901865134_0_0" index="0" disallow="tram rail_urban rail rail_electric rail_fast ship container cable_car subway aircraft wheelchair scooter drone" speed="27.78" length="9.44" shape="558.84,714.06 551.79,707.73"/>
        <lane id=":1901865134_0_1" index="1" disallow="tram rail_urban rail rail_electric rail_fast ship container cable_car subway aircraft wheelchair scooter drone" speed="27.78" length="9.44" shape="560.97,711.67 553.94,705.36"/>
        <lane id=":1901865134_0_2" index="2" disallow="tram rail_urban rail rail_electric rail_fast ship container cable_car subway aircraft wheelchair scooter drone" speed="27.78" length="9.44" shape="563.10,709.28 556.09,702.98"/>
        <lane id=":1901865134_0_3" index="3" disallow="tram rail_urban rail rail_electric rail_fast ship container cable_car subway aircraft wheelchair scooter drone" speed="27.78" length="9.44" shape="565.23,706.90 558.23,700.61"/>
    </edge>
    <edge id=":1901865134_4" function="internal">
        <lane id=":1901865134_4_0" index="0" disallow="tram rail_urban rail rail_electric rail_fast ship container cable_car subway aircraft wheelchair scooter drone" speed="6.08" length="7.77" shape="565.23,706.90 563.31,704.91 562.23,703.17 562.00,701.65 562.62,700.38"/>
    </edge>
    <edge id=":1901865134_5" function="internal">
        <lane id=":1901865134_5_0" index="0" disallow="tram rail_urban rail rail_electric rail_fast ship container cable_car subway aircraft wheelchair scooter drone" speed="6.86" length="10.18" shape="564.99,702.52 562.85,704.31 560.65,704.98 558.40,704.54 556.09,702.98"/>
        <lane id=":1901865134_5_1" index="1" disallow="tram rail_urban rail rail_electric rail_fast ship container cable_car subway aircraft wheelchair scooter drone" speed="6.08" length="7.77" shape="564.99,702.52 563.79,703.27 562.26,703.20 560.41,702.31 558.23,700.61"/>
    </edge>
    <edge id=":1901865134_7" function="internal">
        <lane id=":1901865134_7_0" index="0" disallow="tram rail_urban rail rail_electric rail_fast ship container cable_car subway aircraft wheelchair scooter drone" speed="3.65" length="4.67" shape="564.99,702.52 563.60,702.87 562.73,702.64 562.41,701.80 562.62,700.38"/>
    </edge>
    <edge id=":1901865135_0" function="internal">
        <lane id=":1901865135_0_0" index="0" disallow="tram rail_urban rail rail_electric rail_fast ship container cable_car subway aircraft wheelchair scooter drone" speed="27.78" length="9.65" shape="572.46,685.18 579.48,692.06"/>
        <lane id=":1901865135_0_1" index="1" disallow="tram rail_urban rail rail_electric rail_fast ship container cable_car subway aircraft wheelchair scooter drone" speed="27.78" length="9.65" shape="570.26,687.51 577.20,694.30"/>
        <lane id=":1901865135_0_2" index="2" disallow="tram rail_urban rail rail_electric rail_fast ship container cable_car subway aircraft wheelchair scooter drone" speed="27.78" length="9.65" shape="568.07,689.84 574.92,696.55"/>
        <lane id=":1901865135_0_3" index="3" disallow="tram rail_urban rail rail_electric rail_fast ship container cable_car subway aircraft wheelchair scooter drone" speed="27.78" length="9.65" shape="565.88,692.17 572.64,698.79"/>
    </edge>
    <edge id=":1901865135_4" function="internal">
        <lane id=":1901865135_4_0" index="0" disallow="tram rail_urban rail rail_electric rail_fast ship container cable_car subway aircraft wheelchair scooter drone" speed="6.17" length="7.88" shape="565.88,692.17 567.74,694.20 568.76,696.00 568.93,697.56 568.26,698.89"/>
    </edge>
    <edge id=":1901865135_5" function="internal">
        <lane id=":1901865135_5_0" index="0" disallow="tram rail_urban rail rail_electric rail_fast ship container cable_car subway aircraft wheelchair scooter drone" speed="6.81" length="10.46" shape="565.88,696.75 568.10,694.90 570.35,694.25 572.62,694.80 574.92,696.55"/>
        <lane id=":1901865135_5_1" index="1" disallow="tram rail_urban rail rail_electric rail_fast ship container cable_car subway aircraft wheelchair scooter drone" speed="6.02" length="7.93" shape="565.88,696.75 567.15,695.93 568.70,696.00 570.53,696.96 572.64,698.79"/>
    </edge>
    <edge id=":1901865135_7" function="internal">
        <lane id=":1901865135_7_0" index="0" disallow="tram rail_urban rail rail_electric rail_fast ship container cable_car subway aircraft wheelchair scooter drone" speed="3.65" length="4.67" shape="565.88,696.75 567.28,696.40 568.14,696.63 568.47,697.47 568.26,698.89"/>
    </edge>
    <edge id=":2084131999_0" function="internal">
        <lane id=":2084131999_0_0" index="0" disallow="tram rail_urban rail rail_electric rail_fast ship container cable_car subway aircraft wheelchair scooter drone" speed="27.78" length="0.10" shape="925.06,1062.23 925.12,1062.30"/>
        <lane id=":2084131999_0_1" index="1" disallow="tram rail_urban rail rail_electric rail_fast ship container cable_car subway aircraft wheelchair scooter drone" speed="27.78" length="0.10" shape="927.42,1060.07 927.36,1060.00"/>
    </edge>
    <edge id=":2084132002_0" function="internal">
        <lane id=":2084132002_0_0" index="0" disallow="tram rail_urban rail rail_electric rail_fast ship container cable_car subway aircraft wheelchair scooter drone" speed="15.50" length="16.76" shape="1060.30,1143.38 1060.26,1147.12 1060.17,1150.92 1061.04,1154.91 1063.83,1159.22"/>
    </edge>
    <edge id=":2084132002_1" function="internal">
        <lane id=":2084132002_1_0" index="0" disallow="tram rail_urban rail rail_electric rail_fast ship container cable_car subway aircraft wheelchair scooter drone" speed="27.78" length="16.31" shape="1055.89,1145.19 1058.59,1149.11 1059.81,1152.25 1061.05,1155.37 1063.83,1159.22"/>
        <lane id=":2084132002_1_1" index="1" disallow="tram rail_urban rail rail_electric rail_fast ship container cable_car subway aircraft wheelchair scooter drone" speed="27.78" length="16.31" shape="1053.42,1147.22 1056.15,1151.18 1057.39,1154.34 1058.65,1157.48 1061.46,1161.37"/>
    </edge>
    <edge id=":2084132003_0" function="internal">
        <lane id=":2084132003_0_0" index="0" disallow="tram rail_urban rail rail_electric rail_fast ship container cable_car subway aircraft wheelchair scooter drone" speed="25.00" length="24.65" shape="952.49,1047.83 959.45,1050.21 966.04,1052.00 971.81,1053.26 976.30,1054.04"/>
    </edge>
    <edge id=":2084132003_1" function="internal">
        <lane id=":2084132003_1_0" index="0" disallow="tram rail_urban rail rail_electric rail_fast ship container cable_car subway aircraft wheelchair scooter drone" speed="27.78" length="24.41" shape="952.49,1047.83 958.55,1049.90 963.43,1051.60 968.19,1054.19 973.87,1058.96"/>
        <lane id=":2084132003_1_1" index="1" disallow="tram rail_urban rail rail_electric rail_fast ship container cable_car subway aircraft wheelchair scooter drone" speed="27.78" length="23.65" shape="952.49,1047.83 958.24,1050.30 962.42,1052.84 966.42,1056.24 971.65,1061.27"/>
        <lane id=":2084132003_1_2" index="2" disallow="tram rail_urban rail rail_electric rail_fast ship container cable_car subway aircraft wheelchair scooter drone" speed="27.78" length="23.43" shape="952.49,1047.83 957.91,1050.67 961.34,1054.03 964.59,1058.22 969.43,1063.57"/>
        <lane id=":2084132003_1_3" index="3" disallow="tram rail_urban rail rail_electric rail_fast ship container cable_car subway aircraft wheelchair scooter drone" speed="27.78" length="22.20" shape="951.35,1050.82 956.66,1053.61 959.83,1056.84 962.72,1060.82 967.20,1065.87"/>
        <lane id=":2084132003_1_4" index="4" disallow="tram rail_urban rail rail_electric rail_fast ship container cable_car subway aircraft wheelchair scooter drone" speed="27.78" length="22.60" shape="951.35,1050.82 956.30,1053.96 958.69,1057.96 960.82,1062.73 964.98,1068.17"/>
    </edge>
    <edge id=":2084132003_6" function="internal">
        <lane id=":2084132003_6_0" index="0" disallow="tram rail_urban rail rail_electric rail_fast ship container cable_car subway aircraft wheelchair scooter drone" speed="8.98" length="16.59" shape="951.35,1050.82 953.72,1052.61 954.95,1055.72 955.03,1060.15 953.95,1065.89"/>
    </edge>
    <edge id=":2175104114_0" function="internal">
        <lane id=":2175104114_0_0" index="0" disallow="tram rail_urban rail rail_electric rail_fast ship container cable_car subway aircraft wheelchair scooter drone" speed="27.78" length="0.30" shape="1265.02,1416.81 1265.16,1417.07"/>
        <lane id=":2175104114_0_1" index="1" disallow="tram rail_urban rail rail_electric rail_fast ship container cable_car subway aircraft wheelchair scooter drone" speed="27.78" length="0.30" shape="1262.21,1418.35 1262.35,1418.61"/>
        <lane id=":2175104114_0_2" index="2" disallow="tram rail_urban rail rail_electric rail_fast ship container cable_car subway aircraft wheelchair scooter drone" speed="27.78" length="0.30" shape="1259.41,1419.89 1259.55,1420.15"/>
        <lane id=":2175104114_0_3" index="3" disallow="tram rail_urban rail rail_electric rail_fast ship container cable_car subway aircraft wheelchair scooter drone" speed="27.78" length="0.30" shape="1256.60,1421.43 1256.74,1421.69"/>
    </edge>
    <edge id=":2175126932_0" function="internal">
        <lane id=":2175126932_0_0" index="0" disallow="tram rail_urban rail rail_electric rail_fast ship container cable_car subway aircraft wheelchair scooter drone" speed="27.78" length="14.21" shape="1689.34,660.04 1697.23,671.75"/>
        <lane id=":2175126932_0_1" index="1" disallow="tram rail_urban rail rail_electric rail_fast ship container cable_car subway aircraft wheelchair scooter drone" speed="27.78" length="14.21" shape="1686.64,661.75 1694.63,673.62"/>
    </edge>
    <edge id=":2175126932_2" function="internal">
        <lane id=":2175126932_2_0" index="0" disallow="tram rail_urban rail rail_electric rail_fast ship container cable_car subway aircraft wheelchair scooter drone" speed="7.95" length="14.30" shape="1684.91,669.90 1688.35,667.99 1691.55,667.66 1694.51,668.91 1697.23,671.75"/>
        <lane id=":2175126932_2_1" index="1" disallow="tram rail_urban rail rail_electric rail_fast ship container cable_car subway aircraft wheelchair scooter drone" speed="6.45" length="9.03" shape="1686.85,672.45 1689.02,671.24 1691.04,671.03 1692.91,671.82 1694.63,673.62"/>
    </edge>
    <edge id=":2175126939_0" function="internal">
        <lane id=":2175126939_0_0" index="0" disallow="tram rail_urban rail rail_electric rail_fast ship container cable_car subway aircraft wheelchair scooter drone" speed="27.78" length="14.18" shape="1680.39,684.15 1672.00,672.73"/>
        <lane id=":2175126939_0_1" index="1" disallow="tram rail_urban rail rail_electric rail_fast ship container cable_car subway aircraft wheelchair scooter drone" speed="27.78" length="14.18" shape="1682.98,682.27 1674.57,670.82"/>
    </edge>
    <edge id=":2175126939_2" function="internal">
        <lane id=":2175126939_2_0" index="0" disallow="tram rail_urban rail rail_electric rail_fast ship container cable_car subway aircraft wheelchair scooter drone" speed="7.35" length="11.62" shape="1682.98,682.27 1681.02,678.99 1680.25,676.17 1680.67,673.81 1682.27,671.91"/>
        <lane id=":2175126939_2_1" index="1" disallow="tram rail_urban rail rail_electric rail_fast ship container cable_car subway aircraft wheelchair scooter drone" speed="6.54" length="8.97" shape="1682.98,682.27 1681.85,680.12 1681.68,678.10 1682.46,676.21 1684.21,674.46"/>
    </edge>
    <edge id=":2188036136_0" function="internal">
        <lane id=":2188036136_0_0" index="0" disallow="tram rail_urban rail rail_electric rail_fast ship container cable_car subway aircraft wheelchair scooter drone" speed="27.78" length="8.45" shape="1726.96,489.42 1724.72,490.31 1722.90,490.22 1721.08,490.13 1718.88,491.07"/>
    </edge>
    <edge id=":2188036136_1" function="internal">