<?xml version="1.0" encoding="UTF-8"?>

<!-- generated on 2025-06-10 08:38:04 by Eclipse SUMO netedit Version 1.22.0
<neteditConfiguration xmlns:xsi="http://www.w3.org/2001/XMLSchema-instance" xsi:noNamespaceSchemaLocation="http://sumo.dlr.de/xsd/neteditConfiguration.xsd">

    <input>
        <sumo-net-file value="vung03.net.xml"/>
    </input>

    <output>
        <output-file value="vung03.net.xml"/>
    </output>

    <processing>
        <geometry.min-radius.fix.railways value="false"/>
        <geometry.max-grade.fix value="false"/>
        <offset.disable-normalization value="true"/>
        <lefthand value="0"/>
    </processing>

    <junctions>
        <no-turnarounds value="true"/>
        <junctions.corner-detail value="5"/>
        <junctions.limit-turn-speed value="5.50"/>
        <rectangular-lane-cut value="0"/>
    </junctions>

    <pedestrian>
        <walkingareas value="0"/>
    </pedestrian>

</neteditConfiguration>
-->

<net version="1.20" junctionCornerDetail="5" limitTurnSpeed="5.50" xmlns:xsi="http://www.w3.org/2001/XMLSchema-instance" xsi:noNamespaceSchemaLocation="http://sumo.dlr.de/xsd/net_file.xsd">

    <location netOffset="-582634.77,-2322939.88" convBoundary="81.88,265.56,1983.87,2354.32" origBoundary="105.795151,20.960406,105.816862,21.045988" projParameter="+proj=utm +zone=48 +ellps=WGS84 +datum=WGS84 +units=m +no_defs"/>

    <type id="highway.primary" priority="12" numLanes="2" speed="27.78" disallow="tram rail_urban rail rail_electric rail_fast ship container cable_car subway aircraft wheelchair scooter drone" oneway="0"/>
    <type id="highway.primary_link" priority="7" numLanes="1" speed="22.22" disallow="tram rail_urban rail rail_electric rail_fast ship container cable_car subway aircraft wheelchair scooter drone" oneway="0"/>
    <type id="highway.residential" priority="3" numLanes="1" speed="13.89" disallow="tram rail_urban rail rail_electric rail_fast ship container cable_car subway aircraft wheelchair scooter drone" oneway="0"/>
    <type id="highway.secondary" priority="11" numLanes="1" speed="27.78" disallow="tram rail_urban rail rail_electric rail_fast ship container cable_car subway aircraft wheelchair scooter drone" oneway="0"/>
    <type id="highway.secondary_link" priority="6" numLanes="1" speed="22.22" disallow="tram rail_urban rail rail_electric rail_fast ship container cable_car subway aircraft wheelchair scooter drone" oneway="0"/>
    <type id="highway.tertiary" priority="10" numLanes="1" speed="22.22" disallow="tram rail_urban rail rail_electric rail_fast ship container cable_car subway aircraft wheelchair scooter drone" oneway="0"/>

    <edge id=":10171614265_0" function="internal">
        <lane id=":10171614265_0_0" index="0" disallow="tram rail_urban rail rail_electric rail_fast ship container cable_car subway aircraft wheelchair scooter drone" speed="27.78" length="0.26" shape="1736.57,1414.80 1736.74,1414.71"/>
        <lane id=":10171614265_0_1" index="1" disallow="tram rail_urban rail rail_electric rail_fast ship container cable_car subway aircraft wheelchair scooter drone" speed="27.78" length="0.26" shape="1738.02,1417.66 1738.31,1417.50"/>
    </edge>
    <edge id=":10171614353_0" function="internal">
        <lane id=":10171614353_0_0" index="0" disallow="tram rail_urban rail rail_electric rail_fast ship container cable_car subway aircraft wheelchair scooter drone" speed="27.78" length="0.50" shape="1407.99,1593.34 1407.46,1593.58"/>
        <lane id=":10171614353_0_1" index="1" disallow="tram rail_urban rail rail_electric rail_fast ship container cable_car subway aircraft wheelchair scooter drone" speed="27.78" length="0.50" shape="1406.61,1590.45 1406.23,1590.62"/>
    </edge>
    <edge id=":10171614353_2" function="internal">
        <lane id=":10171614353_2_0" index="0" disallow="tram rail_urban rail rail_electric rail_fast ship container cable_car subway aircraft wheelchair scooter drone" speed="27.78" length="0.17" shape="1403.78,1584.71 1403.85,1584.68"/>
        <lane id=":10171614353_2_1" index="1" disallow="tram rail_urban rail rail_electric rail_fast ship container cable_car subway aircraft wheelchair scooter drone" speed="27.78" length="0.17" shape="1405.00,1587.67 1405.23,1587.56"/>
    </edge>
    <edge id=":10180120749_0" function="internal">
        <lane id=":10180120749_0_0" index="0" disallow="tram rail_urban rail rail_electric rail_fast ship container cable_car subway aircraft wheelchair scooter drone" speed="27.78" length="1.45" shape="993.61,1142.58 992.48,1143.71"/>
        <lane id=":10180120749_0_1" index="1" disallow="tram rail_urban rail rail_electric rail_fast ship container cable_car subway aircraft wheelchair scooter drone" speed="27.78" length="1.45" shape="995.79,1144.93 994.73,1145.99"/>
        <lane id=":10180120749_0_2" index="2" disallow="tram rail_urban rail rail_electric rail_fast ship container cable_car subway aircraft wheelchair scooter drone" speed="27.78" length="1.45" shape="997.97,1147.27 996.98,1148.26"/>
        <lane id=":10180120749_0_3" index="3" disallow="tram rail_urban rail rail_electric rail_fast ship container cable_car subway aircraft wheelchair scooter drone" speed="27.78" length="1.45" shape="1000.14,1149.62 999.23,1150.54"/>
    </edge>
    <edge id=":10180120750_0" function="internal">
        <lane id=":10180120750_0_0" index="0" disallow="tram rail_urban rail rail_electric rail_fast ship container cable_car subway aircraft wheelchair scooter drone" speed="27.78" length="1.15" shape="1009.51,1161.17 1010.13,1160.51"/>
        <lane id=":10180120750_0_1" index="1" disallow="tram rail_urban rail rail_electric rail_fast ship container cable_car subway aircraft wheelchair scooter drone" speed="27.78" length="1.15" shape="1007.25,1158.90 1008.05,1158.08"/>
        <lane id=":10180120750_0_2" index="2" disallow="tram rail_urban rail rail_electric rail_fast ship container cable_car subway aircraft wheelchair scooter drone" speed="27.78" length="1.15" shape="1004.98,1156.64 1005.97,1155.65"/>
    </edge>
    <edge id=":10180671269_0" function="internal">
        <lane id=":10180671269_0_0" index="0" disallow="tram rail_urban rail rail_electric rail_fast ship container cable_car subway aircraft wheelchair scooter drone" speed="11.11" length="0.10" shape="1812.65,890.23 1812.65,890.23"/>
        <lane id=":10180671269_0_1" index="1" disallow="tram rail_urban rail rail_electric rail_fast ship container cable_car subway aircraft wheelchair scooter drone" speed="11.11" length="0.10" shape="1815.43,888.63 1815.43,888.63"/>
        <lane id=":10180671269_0_2" index="2" disallow="tram rail_urban rail rail_electric rail_fast ship container cable_car subway aircraft wheelchair scooter drone" speed="11.11" length="0.10" shape="1818.20,887.04 1818.20,887.04"/>
    </edge>
    <edge id=":10180671269_3" function="internal">
        <lane id=":10180671269_3_0" index="0" allow="bus bicycle" speed="11.11" length="0.10" shape="1820.98,885.44 1820.98,885.44"/>
    </edge>
    <edge id=":10180671269_4" function="internal">
        <lane id=":10180671269_4_0" index="0" allow="bus bicycle" speed="3.65" length="2.34" shape="1820.98,885.44 1820.88,886.88 1820.39,887.63"/>
    </edge>
    <edge id=":10180671269_5" function="internal">
        <lane id=":10180671269_5_0" index="0" allow="bus bicycle" speed="3.65" length="2.34" shape="1820.39,887.63 1819.49,887.68 1818.20,887.04"/>
    </edge>
    <edge id=":10180671270_0" function="internal">
        <lane id=":10180671270_0_0" index="0" allow="bus bicycle" speed="27.78" length="0.15" shape="1829.65,880.49 1829.58,880.37"/>
    </edge>
    <edge id=":10180671270_1" function="internal">
        <lane id=":10180671270_1_0" index="0" allow="bus bicycle" speed="3.65" length="2.34" shape="1829.65,880.49 1829.71,879.05 1830.19,878.29"/>
    </edge>
    <edge id=":10180671270_5" function="internal">
        <lane id=":10180671270_5_0" index="0" allow="bus bicycle" speed="3.65" length="2.34" shape="1830.19,878.29 1831.08,878.22 1832.39,878.83"/>
    </edge>
    <edge id=":10180671270_2" function="internal">
        <lane id=":10180671270_2_0" index="0" disallow="tram rail_urban rail rail_electric rail_fast ship container cable_car subway aircraft wheelchair scooter drone" speed="27.78" length="0.15" shape="1837.77,875.36 1837.85,875.49"/>
        <lane id=":10180671270_2_1" index="1" disallow="tram rail_urban rail rail_electric rail_fast ship container cable_car subway aircraft wheelchair scooter drone" speed="27.78" length="0.15" shape="1835.04,877.03 1835.12,877.16"/>
        <lane id=":10180671270_2_2" index="2" disallow="tram rail_urban rail rail_electric rail_fast ship container cable_car subway aircraft wheelchair scooter drone" speed="27.78" length="0.15" shape="1832.31,878.70 1832.39,878.83"/>
    </edge>
    <edge id=":10180671333_0" function="internal">
        <lane id=":10180671333_0_0" index="0" disallow="tram rail_urban rail rail_electric rail_fast ship container cable_car subway aircraft wheelchair scooter drone" speed="12.55" length="8.71" shape="1032.96,1177.69 1030.99,1176.16 1029.34,1175.60 1027.48,1175.44 1024.89,1175.12"/>
    </edge>
    <edge id=":10180671333_1" function="internal">
        <lane id=":10180671333_1_0" index="0" disallow="tram rail_urban rail rail_electric rail_fast ship container cable_car subway aircraft wheelchair scooter drone" speed="27.78" length="8.74" shape="1032.96,1177.69 1026.66,1171.63"/>
        <lane id=":10180671333_1_1" index="1" disallow="tram rail_urban rail rail_electric rail_fast ship container cable_car subway aircraft wheelchair scooter drone" speed="27.78" length="8.74" shape="1035.18,1175.38 1028.88,1169.32"/>
        <lane id=":10180671333_1_2" index="2" disallow="tram rail_urban rail rail_electric rail_fast ship container cable_car subway aircraft wheelchair scooter drone" speed="27.78" length="8.74" shape="1037.39,1173.07 1031.09,1167.01"/>
        <lane id=":10180671333_1_3" index="3" disallow="tram rail_urban rail rail_electric rail_fast ship container cable_car subway aircraft wheelchair scooter drone" speed="27.78" length="8.74" shape="1039.60,1170.76 1033.31,1164.71"/>
        <lane id=":10180671333_1_4" index="4" disallow="tram rail_urban rail rail_electric rail_fast ship container cable_car subway aircraft wheelchair scooter drone" speed="27.78" length="8.74" shape="1041.82,1168.45 1035.53,1162.40"/>
    </edge>
    <edge id=":10180671400_0" function="internal">
        <lane id=":10180671400_0_0" index="0" disallow="tram rail_urban rail rail_electric rail_fast ship container cable_car subway aircraft wheelchair scooter drone" speed="27.78" length="0.30" shape="1295.98,1479.39 1296.14,1479.66"/>
        <lane id=":10180671400_0_1" index="1" disallow="tram rail_urban rail rail_electric rail_fast ship container cable_car subway aircraft wheelchair scooter drone" speed="27.78" length="0.30" shape="1293.20,1480.96 1293.35,1481.23"/>
        <lane id=":10180671400_0_2" index="2" disallow="tram rail_urban rail rail_electric rail_fast ship container cable_car subway aircraft wheelchair scooter drone" speed="27.78" length="0.30" shape="1290.41,1482.54 1290.56,1482.80"/>
        <lane id=":10180671400_0_3" index="3" disallow="tram rail_urban rail rail_electric rail_fast ship container cable_car subway aircraft wheelchair scooter drone" speed="27.78" length="0.30" shape="1287.63,1484.11 1287.77,1484.36"/>
    </edge>
    <edge id=":10296445822_0" function="internal">
        <lane id=":10296445822_0_0" index="0" disallow="tram rail_urban rail rail_electric rail_fast ship container cable_car subway aircraft wheelchair scooter drone" speed="8.29" length="7.09" shape="1331.89,1645.62 1329.75,1644.87 1327.89,1644.51 1326.32,1644.54 1325.02,1644.94"/>
    </edge>
    <edge id=":10296445822_1" function="internal">
        <lane id=":10296445822_1_0" index="0" disallow="tram rail_urban rail rail_electric rail_fast ship container cable_car subway aircraft wheelchair scooter drone" speed="8.14" length="22.30" shape="1331.89,1645.62 1326.15,1642.20 1322.76,1637.86 1322.58,1633.33 1326.48,1629.35"/>
        <lane id=":10296445822_1_1" index="1" disallow="tram rail_urban rail rail_electric rail_fast ship container cable_car subway aircraft wheelchair scooter drone" speed="7.82" length="20.49" shape="1331.89,1645.62 1325.59,1642.29 1322.84,1638.94 1323.66,1635.55 1328.04,1632.14"/>
    </edge>
    <edge id=":10296445822_3" function="internal">
        <lane id=":10296445822_3_0" index="0" disallow="tram rail_urban rail rail_electric rail_fast ship container cable_car subway aircraft wheelchair scooter drone" speed="27.78" length="8.77" shape="1332.71,1640.53 1325.02,1644.94"/>
        <lane id=":10296445822_3_1" index="1" disallow="tram rail_urban rail rail_electric rail_fast ship container cable_car subway aircraft wheelchair scooter drone" speed="27.78" length="8.77" shape="1331.15,1637.73 1323.55,1642.10"/>
        <lane id=":10296445822_3_2" index="2" disallow="tram rail_urban rail rail_electric rail_fast ship container cable_car subway aircraft wheelchair scooter drone" speed="27.78" length="8.77" shape="1329.60,1634.94 1322.08,1639.26"/>
    </edge>
    <edge id=":10296445822_6" function="internal">
        <lane id=":10296445822_6_0" index="0" disallow="tram rail_urban rail rail_electric rail_fast ship container cable_car subway aircraft wheelchair scooter drone" speed="3.65" length="1.44" shape="1329.60,1634.94 1328.16,1634.82"/>
    </edge>
    <edge id=":10296445822_12" function="internal">
        <lane id=":10296445822_12_0" index="0" disallow="tram rail_urban rail rail_electric rail_fast ship container cable_car subway aircraft wheelchair scooter drone" speed="3.65" length="3.23" shape="1328.16,1634.82 1327.42,1634.32 1327.38,1633.42 1328.04,1632.14"/>
    </edge>
    <edge id=":10296445822_7" function="internal">
        <lane id=":10296445822_7_0" index="0" disallow="tram rail_urban rail rail_electric rail_fast ship container cable_car subway aircraft wheelchair scooter drone" speed="8.85" length="8.01" shape="1317.66,1630.74 1318.79,1629.84 1319.80,1628.40 1320.67,1626.41 1321.40,1623.88"/>
    </edge>
    <edge id=":10296445822_8" function="internal">
        <lane id=":10296445822_8_0" index="0" disallow="tram rail_urban rail rail_electric rail_fast ship container cable_car subway aircraft wheelchair scooter drone" speed="27.78" length="8.49" shape="1317.66,1630.74 1324.93,1626.55"/>
        <lane id=":10296445822_8_1" index="1" disallow="tram rail_urban rail rail_electric rail_fast ship container cable_car subway aircraft wheelchair scooter drone" speed="27.78" length="8.49" shape="1319.13,1633.58 1326.48,1629.35"/>
        <lane id=":10296445822_8_2" index="2" disallow="tram rail_urban rail rail_electric rail_fast ship container cable_car subway aircraft wheelchair scooter drone" speed="27.78" length="8.49" shape="1320.60,1636.42 1328.04,1632.14"/>
    </edge>
    <edge id=":10296445822_11" function="internal">
        <lane id=":10296445822_11_0" index="0" disallow="tram rail_urban rail rail_electric rail_fast ship container cable_car subway aircraft wheelchair scooter drone" speed="3.65" length="1.44" shape="1320.60,1636.42 1322.04,1636.58"/>
    </edge>
    <edge id=":10296445822_13" function="internal">
        <lane id=":10296445822_13_0" index="0" disallow="tram rail_urban rail rail_electric rail_fast ship container cable_car subway aircraft wheelchair scooter drone" speed="3.65" length="3.23" shape="1322.04,1636.58 1322.76,1637.10 1322.77,1638.00 1322.08,1639.26"/>
    </edge>
    <edge id=":10296445823_0" function="internal">
        <lane id=":10296445823_0_0" index="0" disallow="tram rail_urban rail rail_electric rail_fast ship container cable_car subway aircraft wheelchair scooter drone" speed="10.42" length="8.07" shape="1357.89,1657.70 1356.59,1655.82 1355.25,1654.91 1353.59,1654.36 1351.30,1653.58"/>
    </edge>
    <edge id=":10296445823_1" function="internal">
        <lane id=":10296445823_1_0" index="0" disallow="tram rail_urban rail rail_electric rail_fast ship container cable_car subway aircraft wheelchair scooter drone" speed="27.78" length="8.14" shape="1357.89,1657.70 1353.99,1650.58"/>
        <lane id=":10296445823_1_1" index="1" disallow="tram rail_urban rail rail_electric rail_fast ship container cable_car subway aircraft wheelchair scooter drone" speed="27.78" length="8.14" shape="1360.70,1656.18 1356.80,1649.05"/>
        <lane id=":10296445823_1_2" index="2" disallow="tram rail_urban rail rail_electric rail_fast ship container cable_car subway aircraft wheelchair scooter drone" speed="27.78" length="8.14" shape="1363.52,1654.66 1359.60,1647.52"/>
        <lane id=":10296445823_1_3" index="3" disallow="tram rail_urban rail rail_electric rail_fast ship container cable_car subway aircraft wheelchair scooter drone" speed="27.78" length="8.14" shape="1366.34,1653.14 1362.41,1645.99"/>
    </edge>
    <edge id=":10296445824_0" function="internal">
        <lane id=":10296445824_0_0" index="0" disallow="tram rail_urban rail rail_electric rail_fast ship container cable_car subway aircraft wheelchair scooter drone" speed="27.78" length="7.85" shape="1329.64,1605.80 1325.86,1598.91"/>
        <lane id=":10296445824_0_1" index="1" disallow="tram rail_urban rail rail_electric rail_fast ship container cable_car subway aircraft wheelchair scooter drone" speed="27.78" length="7.85" shape="1332.44,1604.26 1328.67,1597.37"/>
        <lane id=":10296445824_0_2" index="2" disallow="tram rail_urban rail rail_electric rail_fast ship container cable_car subway aircraft wheelchair scooter drone" speed="27.78" length="7.85" shape="1335.25,1602.72 1331.48,1595.84"/>
        <lane id=":10296445824_0_3" index="3" disallow="tram rail_urban rail rail_electric rail_fast ship container cable_car subway aircraft wheelchair scooter drone" speed="27.78" length="7.85" shape="1338.06,1601.19 1334.28,1594.30"/>
    </edge>
    <edge id=":10296445824_4" function="internal">
        <lane id=":10296445824_4_0" index="0" disallow="tram rail_urban rail rail_electric rail_fast ship container cable_car subway aircraft wheelchair scooter drone" speed="9.73" length="8.93" shape="1325.58,1606.34 1326.24,1604.11 1326.72,1602.49 1326.70,1600.94 1325.86,1598.91"/>
        <lane id=":10296445824_4_1" index="1" disallow="tram rail_urban rail rail_electric rail_fast ship container cable_car subway aircraft wheelchair scooter drone" speed="11.03" length="8.93" shape="1325.58,1606.34 1326.85,1603.58 1328.39,1601.69 1329.30,1599.88 1328.67,1597.37"/>
    </edge>
    <edge id=":10542328776_0" function="internal">
        <lane id=":10542328776_0_0" index="0" disallow="tram rail_urban rail rail_electric rail_fast ship container cable_car subway aircraft wheelchair scooter drone" speed="13.89" length="8.08" shape="611.64,1645.20 607.27,1652.00"/>
    </edge>
    <edge id=":10542328776_1" function="internal">
        <lane id=":10542328776_1_0" index="0" disallow="tram rail_urban rail rail_electric rail_fast ship container cable_car subway aircraft wheelchair scooter drone" speed="5.95" length="3.16" shape="611.64,1645.20 609.63,1647.49 609.51,1647.51"/>
    </edge>
    <edge id=":10542328776_2" function="internal">
        <lane id=":10542328776_2_0" index="0" disallow="tram rail_urban rail rail_electric rail_fast ship container cable_car subway aircraft wheelchair scooter drone" speed="3.65" length="1.44" shape="611.64,1645.20 610.32,1645.78"/>
    </edge>
    <edge id=":10542328776_6" function="internal">
        <lane id=":10542328776_6_0" index="0" disallow="tram rail_urban rail rail_electric rail_fast ship container cable_car subway aircraft wheelchair scooter drone" speed="5.95" length="7.91" shape="609.51,1647.51 607.74,1647.88 605.97,1646.37 604.32,1642.97"/>
    </edge>
    <edge id=":10542328776_7" function="internal">
        <lane id=":10542328776_7_0" index="0" disallow="tram rail_urban rail rail_electric rail_fast ship container cable_car subway aircraft wheelchair scooter drone" speed="3.65" length="3.23" shape="610.32,1645.78 609.43,1645.68 608.97,1644.92 608.94,1643.47"/>
    </edge>
    <edge id=":10542328776_3" function="internal">
        <lane id=":10542328776_3_0" index="0" disallow="tram rail_urban rail rail_electric rail_fast ship container cable_car subway aircraft wheelchair scooter drone" speed="8.15" length="7.52" shape="604.59,1650.25 605.15,1648.91 605.29,1647.26 605.02,1645.27 604.32,1642.97"/>
    </edge>
    <edge id=":10542328776_4" function="internal">
        <lane id=":10542328776_4_0" index="0" disallow="tram rail_urban rail rail_electric rail_fast ship container cable_car subway aircraft wheelchair scooter drone" speed="13.89" length="8.05" shape="604.59,1650.25 608.94,1643.47"/>
    </edge>
    <edge id=":10542328776_5" function="internal">
        <lane id=":10542328776_5_0" index="0" disallow="tram rail_urban rail rail_electric rail_fast ship container cable_car subway aircraft wheelchair scooter drone" speed="3.65" length="1.44" shape="604.59,1650.25 605.92,1649.68"/>
    </edge>
    <edge id=":10542328776_8" function="internal">
        <lane id=":10542328776_8_0" index="0" disallow="tram rail_urban rail rail_electric rail_fast ship container cable_car subway aircraft wheelchair scooter drone" speed="3.65" length="3.23" shape="605.92,1649.68 606.81,1649.79 607.26,1650.56 607.27,1652.00"/>
    </edge>
    <edge id=":106078638_0" function="internal">
        <lane id=":106078638_0_0" index="0" disallow="tram rail_urban rail rail_electric rail_fast ship container cable_car subway aircraft wheelchair scooter drone" speed="16.30" length="16.78" shape="775.04,916.98 770.76,914.00 766.82,912.80 763.08,912.52 759.39,912.29"/>
    </edge>
    <edge id=":106078638_1" function="internal">
        <lane id=":106078638_1_0" index="0" disallow="tram rail_urban rail rail_electric rail_fast ship container cable_car subway aircraft wheelchair scooter drone" speed="27.78" length="17.89" shape="775.04,916.98 762.32,904.08"/>
        <lane id=":106078638_1_1" index="1" disallow="tram rail_urban rail rail_electric rail_fast ship container cable_car subway aircraft wheelchair scooter drone" speed="27.78" length="17.89" shape="777.21,914.63 764.60,901.83"/>
        <lane id=":106078638_1_2" index="2" disallow="tram rail_urban rail rail_electric rail_fast ship container cable_car subway aircraft wheelchair scooter drone" speed="27.78" length="17.89" shape="779.38,912.28 766.88,899.59"/>
        <lane id=":106078638_1_3" index="3" disallow="tram rail_urban rail rail_electric rail_fast ship container cable_car subway aircraft wheelchair scooter drone" speed="27.78" length="17.89" shape="781.56,909.93 769.16,897.35"/>
    </edge>
    <edge id=":106078638_5" function="internal">
        <lane id=":106078638_5_0" index="0" disallow="tram rail_urban rail rail_electric rail_fast ship container cable_car subway aircraft wheelchair scooter drone" speed="5.46" length="10.23" shape="759.81,909.12 763.18,909.22 764.72,908.42 764.43,906.71 762.32,904.08"/>
        <lane id=":106078638_5_1" index="1" disallow="tram rail_urban rail rail_electric rail_fast ship container cable_car subway aircraft wheelchair scooter drone" speed="6.59" length="15.74" shape="759.81,909.12 765.25,909.34 767.87,908.20 767.65,905.70 764.60,901.83"/>
        <lane id=":106078638_5_2" index="2" disallow="tram rail_urban rail rail_electric rail_fast ship container cable_car subway aircraft wheelchair scooter drone" speed="7.56" length="21.27" shape="759.81,909.12 767.33,909.45 771.02,907.98 770.87,904.69 766.88,899.59"/>
    </edge>
    <edge id=":106078638_8" function="internal">
        <lane id=":106078638_8_0" index="0" disallow="tram rail_urban rail rail_electric rail_fast ship container cable_car subway aircraft wheelchair scooter drone" speed="3.65" length="4.67" shape="759.81,909.12 760.89,910.07 761.18,910.91 760.68,911.65 759.39,912.29"/>
    </edge>
    <edge id=":11283349964_0" function="internal">
        <lane id=":11283349964_0_0" index="0" disallow="tram rail_urban rail rail_electric rail_fast ship container cable_car subway aircraft wheelchair scooter drone" speed="27.78" length="0.30" shape="1677.14,1456.98 1676.88,1457.11"/>
        <lane id=":11283349964_0_1" index="1" disallow="tram rail_urban rail rail_electric rail_fast ship container cable_car subway aircraft wheelchair scooter drone" speed="27.78" length="0.30" shape="1675.70,1454.12 1675.44,1454.26"/>
    </edge>
    <edge id=":11283349964_2" function="internal">
        <lane id=":11283349964_2_0" index="0" disallow="tram rail_urban rail rail_electric rail_fast ship container cable_car subway aircraft wheelchair scooter drone" speed="27.78" length="0.30" shape="1672.55,1448.54 1672.83,1448.40"/>
        <lane id=":11283349964_2_1" index="1" disallow="tram rail_urban rail rail_electric rail_fast ship container cable_car subway aircraft wheelchair scooter drone" speed="27.78" length="0.30" shape="1674.00,1451.40 1674.26,1451.26"/>
    </edge>
    <edge id=":11285432567_0" function="internal">
        <lane id=":11285432567_0_0" index="0" disallow="tram rail_urban rail rail_electric rail_fast ship container cable_car subway aircraft wheelchair scooter drone" speed="3.65" length="4.67" shape="874.24,1940.83 873.51,1942.07 872.73,1942.52 871.91,1942.16 871.04,1941.01"/>
    </edge>
    <edge id=":11420299574_0" function="internal">
        <lane id=":11420299574_0_0" index="0" disallow="tram rail_urban rail rail_electric rail_fast ship container cable_car subway aircraft wheelchair scooter drone" speed="27.78" length="0.28" shape="1421.31,1586.98 1421.06,1587.10"/>
        <lane id=":11420299574_0_1" index="1" disallow="tram rail_urban rail rail_electric rail_fast ship container cable_car subway aircraft wheelchair scooter drone" speed="27.78" length="0.28" shape="1419.95,1584.08 1419.68,1584.21"/>
    </edge>
    <edge id=":11420299574_2" function="internal">
        <lane id=":11420299574_2_0" index="0" disallow="tram rail_urban rail rail_electric rail_fast ship container cable_car subway aircraft wheelchair scooter drone" speed="27.78" length="0.31" shape="1416.93,1578.43 1417.22,1578.29"/>
        <lane id=":11420299574_2_1" index="1" disallow="tram rail_urban rail rail_electric rail_fast ship container cable_car subway aircraft wheelchair scooter drone" speed="27.78" length="0.31" shape="1418.31,1581.32 1418.58,1581.19"/>
    </edge>
    <edge id=":12816414542_0" function="internal">
        <lane id=":12816414542_0_0" index="0" disallow="tram rail_urban rail rail_electric rail_fast ship container cable_car subway aircraft wheelchair scooter drone" speed="25.00" length="12.13" shape="1398.78,1597.94 1397.34,1600.65 1396.98,1603.12 1396.84,1605.90 1396.09,1609.55"/>
        <lane id=":12816414542_0_1" index="1" disallow="tram rail_urban rail rail_electric rail_fast ship container cable_car subway aircraft wheelchair scooter drone" speed="25.00" length="12.13" shape="1398.78,1597.94 1396.87,1600.49 1395.46,1602.60 1394.27,1605.05 1393.03,1608.59"/>
    </edge>
    <edge id=":12816414542_2" function="internal">
        <lane id=":12816414542_2_0" index="0" disallow="tram rail_urban rail rail_electric rail_fast ship container cable_car subway aircraft wheelchair scooter drone" speed="22.35" length="12.60" shape="1398.78,1597.94 1396.51,1600.37 1394.11,1601.99 1391.46,1603.34 1388.44,1604.93"/>
    </edge>
    <edge id=":12816414547_0" function="internal">
        <lane id=":12816414547_0_0" index="0" disallow="tram rail_urban rail rail_electric rail_fast ship container cable_car subway aircraft wheelchair scooter drone" speed="13.32" length="11.92" shape="1375.39,1588.47 1378.25,1589.41 1380.26,1590.20 1382.26,1590.45 1385.05,1589.83"/>
        <lane id=":12816414547_0_1" index="1" disallow="tram rail_urban rail rail_electric rail_fast ship container cable_car subway aircraft wheelchair scooter drone" speed="14.46" length="11.92" shape="1374.60,1591.57 1377.99,1592.64 1380.39,1593.45 1382.77,1593.65 1386.09,1592.86"/>
        <lane id=":12816414547_0_2" index="2" disallow="tram rail_urban rail rail_electric rail_fast ship container cable_car subway aircraft wheelchair scooter drone" speed="15.57" length="11.92" shape="1374.60,1591.57 1378.38,1593.24 1380.92,1595.15 1383.42,1596.35 1387.12,1595.89"/>
    </edge>
    <edge id=":12816414547_3" function="internal">
        <lane id=":12816414547_3_0" index="0" disallow="tram rail_urban rail rail_electric rail_fast ship container cable_car subway aircraft wheelchair scooter drone" speed="27.78" length="10.76" shape="1375.10,1595.61 1378.02,1593.81 1379.93,1592.39 1381.91,1591.13 1385.05,1589.83"/>
        <lane id=":12816414547_3_1" index="1" disallow="tram rail_urban rail rail_electric rail_fast ship container cable_car subway aircraft wheelchair scooter drone" speed="27.78" length="10.76" shape="1376.62,1598.42 1379.41,1596.70 1381.22,1595.33 1383.09,1594.11 1386.09,1592.86"/>
        <lane id=":12816414547_3_2" index="2" disallow="tram rail_urban rail rail_electric rail_fast ship container cable_car subway aircraft wheelchair scooter drone" speed="27.78" length="10.76" shape="1378.15,1601.24 1380.79,1599.59 1382.50,1598.26 1384.28,1597.08 1387.12,1595.89"/>
        <lane id=":12816414547_3_3" index="3" disallow="tram rail_urban rail rail_electric rail_fast ship container cable_car subway aircraft wheelchair scooter drone" speed="27.78" length="10.76" shape="1379.67,1604.05 1382.18,1602.48 1383.79,1601.20 1385.46,1600.06 1388.16,1598.91"/>
    </edge>
    <edge id=":12833657570_0" function="internal">
        <lane id=":12833657570_0_0" index="0" disallow="tram rail_urban rail rail_electric rail_fast ship container cable_car subway aircraft wheelchair scooter drone" speed="27.78" length="0.30" shape="808.46,943.98 808.25,943.76"/>