<?xml version="1.0" encoding="UTF-8"?>

<!-- generated on 2025-06-12 15:33:00 by Eclipse SUMO netedit Version 1.22.0
<neteditConfiguration xmlns:xsi="http://www.w3.org/2001/XMLSchema-instance" xsi:noNamespaceSchemaLocation="http://sumo.dlr.de/xsd/neteditConfiguration.xsd">

    <input>
        <sumo-net-file value="D:\Cau_giay_sumo\Cau_Giay_sumo\sumo\son_region\vung_03\vung03.net.xml"/>
    </input>

    <output>
        <output-file value="D:\Cau_giay_sumo\Cau_Giay_sumo\sumo\son_region\vung_03\vung03.net.xml"/>
    </output>

    <processing>
        <geometry.min-radius.fix.railways value="false"/>
        <geometry.max-grade.fix value="false"/>
        <offset.disable-normalization value="true"/>
        <lefthand value="0"/>
    </processing>

    <junctions>
        <no-turnarounds value="true"/>
        <junctions.corner-detail value="5"/>
        <junctions.limit-turn-speed value="5.50"/>
        <rectangular-lane-cut value="0"/>
    </junctions>

    <pedestrian>
        <walkingareas value="0"/>
    </pedestrian>

</neteditConfiguration>
-->

<net version="1.20" junctionCornerDetail="5" limitTurnSpeed="5.50" xmlns:xsi="http://www.w3.org/2001/XMLSchema-instance" xsi:noNamespaceSchemaLocation="http://sumo.dlr.de/xsd/net_file.xsd">

    <location netOffset="-582634.77,-2322939.88" convBoundary="81.88,265.56,1983.87,2354.32" origBoundary="105.795151,20.960406,105.816862,21.045988" projParameter="+proj=utm +zone=48 +ellps=WGS84 +datum=WGS84 +units=m +no_defs"/>

    <type id="highway.primary" priority="12" numLanes="2" speed="27.78" disallow="tram rail_urban rail rail_electric rail_fast ship container cable_car subway aircraft wheelchair scooter drone" oneway="0"/>
    <type id="highway.primary_link" priority="7" numLanes="1" speed="22.22" disallow="tram rail_urban rail rail_electric rail_fast ship container cable_car subway aircraft wheelchair scooter drone" oneway="0"/>
    <type id="highway.secondary" priority="11" numLanes="1" speed="27.78" disallow="tram rail_urban rail rail_electric rail_fast ship container cable_car subway aircraft wheelchair scooter drone" oneway="0"/>
    <type id="highway.secondary_link" priority="6" numLanes="1" speed="22.22" disallow="tram rail_urban rail rail_electric rail_fast ship container cable_car subway aircraft wheelchair scooter drone" oneway="0"/>
    <type id="highway.tertiary" priority="10" numLanes="1" speed="22.22" disallow="tram rail_urban rail rail_electric rail_fast ship container cable_car subway aircraft wheelchair scooter drone" oneway="0"/>

    <edge id=":10171614353_0" function="internal">
        <lane id=":10171614353_0_0" index="0" disallow="tram rail_urban rail rail_electric rail_fast ship container cable_car subway aircraft wheelchair scooter drone" speed="20.84" length="25.30" width="6.00" shape="1408.24,1593.89 1402.75,1598.50 1399.11,1604.42 1396.66,1610.29 1394.72,1614.70"/>
    </edge>
    <edge id=":10171614353_1" function="internal">
        <lane id=":10171614353_1_0" index="0" disallow="tram rail_urban rail rail_electric rail_fast ship container cable_car subway aircraft wheelchair scooter drone" speed="20.84" length="23.02" shape="1408.24,1593.89 1388.40,1605.36"/>
        <lane id=":10171614353_1_1" index="1" disallow="tram rail_urban rail rail_electric rail_fast ship container cable_car subway aircraft wheelchair scooter drone" speed="20.84" length="23.02" shape="1406.74,1591.06 1386.72,1602.63"/>
    </edge>
    <edge id=":10171614353_3" function="internal">
        <lane id=":10171614353_3_0" index="0" disallow="tram rail_urban rail rail_electric rail_fast ship container cable_car subway aircraft wheelchair scooter drone" speed="17.57" length="20.33" shape="1384.27,1583.60 1388.19,1584.85 1392.65,1586.54 1397.79,1587.24 1403.80,1585.48"/>
    </edge>
    <edge id=":10171614353_4" function="internal">
        <lane id=":10171614353_4_0" index="0" speed="11.89" length="41.11" width="6.00" shape="1384.27,1583.60 1394.82,1587.36 1399.73,1594.25 1399.53,1603.59 1394.72,1614.70"/>
    </edge>
    <edge id=":10171614353_5" function="internal">
        <lane id=":10171614353_5_0" index="0" speed="8.49" length="25.70" shape="1384.27,1583.60 1390.40,1586.48 1392.92,1591.71 1391.72,1597.64 1386.72,1602.63"/>
    </edge>
    <edge id=":10171614353_6" function="internal">
        <lane id=":10171614353_6_0" index="0" disallow="tram rail_urban rail rail_electric rail_fast ship container cable_car subway aircraft wheelchair scooter drone" speed="20.84" length="23.46" shape="1383.35,1597.19 1403.80,1585.48"/>
        <lane id=":10171614353_6_1" index="1" disallow="tram rail_urban rail rail_electric rail_fast ship container cable_car subway aircraft wheelchair scooter drone" speed="20.84" length="23.46" shape="1385.03,1599.91 1405.29,1588.31"/>
    </edge>
    <edge id=":10171614353_8" function="internal">
        <lane id=":10171614353_8_0" index="0" speed="7.77" length="2.13" width="6.00" shape="1385.03,1599.91 1387.14,1599.57"/>
    </edge>
    <edge id=":10171614353_9" function="internal">
        <lane id=":10171614353_9_0" index="0" speed="7.77" length="21.88" width="6.00" shape="1387.14,1599.57 1390.84,1598.97 1394.95,1602.30 1396.51,1608.13 1394.72,1614.70"/>
    </edge>
    <edge id=":10180671333_0" function="internal">
        <lane id=":10180671333_0_0" index="0" disallow="tram rail_urban rail rail_electric rail_fast ship container cable_car subway aircraft wheelchair scooter drone" speed="16.07" length="15.64" width="5.00" shape="1042.51,1181.80 1038.36,1179.45 1034.67,1178.84 1031.16,1179.05 1027.55,1179.16"/>
    </edge>
    <edge id=":10180671333_1" function="internal">
        <lane id=":10180671333_1_0" index="0" disallow="tram rail_urban rail rail_electric rail_fast ship container cable_car subway aircraft wheelchair scooter drone" speed="27.78" length="15.12" shape="1042.51,1181.80 1038.69,1179.37 1035.70,1178.27 1032.75,1177.13 1029.03,1174.57"/>
        <lane id=":10180671333_1_1" index="1" disallow="tram rail_urban rail rail_electric rail_fast ship container cable_car subway aircraft wheelchair scooter drone" speed="27.78" length="15.12" shape="1042.51,1181.80 1031.10,1172.14"/>
        <lane id=":10180671333_1_2" index="2" disallow="tram rail_urban rail rail_electric rail_fast ship container cable_car subway aircraft wheelchair scooter drone" speed="27.78" length="15.12" shape="1044.50,1179.30 1033.18,1169.70"/>
        <lane id=":10180671333_1_3" index="3" disallow="tram rail_urban rail rail_electric rail_fast ship container cable_car subway aircraft wheelchair scooter drone" speed="27.78" length="15.12" shape="1044.50,1179.30 1041.36,1176.12 1039.81,1173.36 1038.30,1170.56 1035.26,1167.27"/>
    </edge>
    <edge id=":10180671400_0" function="internal">
        <lane id=":10180671400_0_0" index="0" disallow="tram rail_urban rail rail_electric rail_fast ship container cable_car subway aircraft wheelchair scooter drone" speed="27.78" length="0.30" shape="1298.26,1477.69 1298.35,1477.87"/>
        <lane id=":10180671400_0_1" index="1" disallow="tram rail_urban rail rail_electric rail_fast ship container cable_car subway aircraft wheelchair scooter drone" speed="27.78" length="0.30" shape="1295.41,1479.15 1295.53,1479.39"/>
        <lane id=":10180671400_0_2" index="2" disallow="tram rail_urban rail rail_electric rail_fast ship container cable_car subway aircraft wheelchair scooter drone" speed="27.78" length="0.30" shape="1292.56,1480.60 1292.71,1480.90"/>
        <lane id=":10180671400_0_3" index="3" disallow="tram rail_urban rail rail_electric rail_fast ship container cable_car subway aircraft wheelchair scooter drone" speed="27.78" length="0.30" shape="1289.71,1482.06 1289.89,1482.41"/>
    </edge>
    <edge id=":10296445822_0" function="internal">
        <lane id=":10296445822_0_0" index="0" disallow="tram rail_urban rail rail_electric rail_fast ship container cable_car subway aircraft wheelchair scooter drone" speed="10.67" length="10.13" shape="1334.46,1644.88 1331.57,1644.15 1329.46,1643.95 1327.44,1644.43 1324.80,1645.75"/>
    </edge>
    <edge id=":10296445822_1" function="internal">
        <lane id=":10296445822_1_0" index="0" disallow="tram rail_urban rail rail_electric rail_fast ship container cable_car subway aircraft wheelchair scooter drone" speed="8.07" length="22.58" shape="1334.46,1644.88 1328.34,1642.06 1324.46,1637.92 1323.84,1633.34 1327.51,1629.19"/>
        <lane id=":10296445822_1_1" index="1" disallow="tram rail_urban rail rail_electric rail_fast ship container cable_car subway aircraft wheelchair scooter drone" speed="7.94" length="21.80" shape="1334.46,1644.88 1327.14,1642.18 1323.81,1639.12 1324.48,1635.71 1329.14,1631.94"/>
    </edge>
    <edge id=":10296445822_3" function="internal">
        <lane id=":10296445822_3_0" index="0" disallow="tram rail_urban rail rail_electric rail_fast ship container cable_car subway aircraft wheelchair scooter drone" speed="27.78" length="10.69" shape="1333.97,1640.11 1324.80,1645.75"/>
        <lane id=":10296445822_3_1" index="1" disallow="tram rail_urban rail rail_electric rail_fast ship container cable_car subway aircraft wheelchair scooter drone" speed="27.78" length="10.69" shape="1332.34,1637.35 1323.24,1642.96"/>
        <lane id=":10296445822_3_2" index="2" disallow="tram rail_urban rail rail_electric rail_fast ship container cable_car subway aircraft wheelchair scooter drone" speed="27.78" length="10.69" shape="1330.71,1634.60 1321.67,1640.17"/>
    </edge>
    <edge id=":10296445822_6" function="internal">
        <lane id=":10296445822_6_0" index="0" disallow="tram rail_urban rail rail_electric rail_fast ship container cable_car subway aircraft wheelchair scooter drone" speed="3.61" length="1.25" shape="1330.71,1634.60 1329.46,1634.53"/>
    </edge>
    <edge id=":10296445822_12" function="internal">
        <lane id=":10296445822_12_0" index="0" disallow="tram rail_urban rail rail_electric rail_fast ship container cable_car subway aircraft wheelchair scooter drone" speed="3.61" length="3.25" shape="1329.46,1634.53 1329.32,1634.52 1328.60,1634.06 1328.54,1633.20 1329.14,1631.94"/>
    </edge>
    <edge id=":10296445822_7" function="internal">
        <lane id=":10296445822_7_0" index="0" disallow="tram rail_urban rail rail_electric rail_fast ship container cable_car subway aircraft wheelchair scooter drone" speed="8.90" length="8.45" width="4.00" shape="1316.96,1631.78 1318.23,1630.73 1319.27,1629.16 1320.10,1627.07 1320.70,1624.47"/>
    </edge>
    <edge id=":10296445822_8" function="internal">
        <lane id=":10296445822_8_0" index="0" disallow="tram rail_urban rail rail_electric rail_fast ship container cable_car subway aircraft wheelchair scooter drone" speed="27.78" length="10.47" shape="1316.96,1631.78 1325.88,1626.44"/>
        <lane id=":10296445822_8_1" index="1" disallow="tram rail_urban rail rail_electric rail_fast ship container cable_car subway aircraft wheelchair scooter drone" speed="27.78" length="10.47" shape="1318.53,1634.57 1327.51,1629.19"/>
        <lane id=":10296445822_8_2" index="2" disallow="tram rail_urban rail rail_electric rail_fast ship container cable_car subway aircraft wheelchair scooter drone" speed="27.78" length="10.47" shape="1320.09,1637.36 1329.14,1631.94"/>
    </edge>
    <edge id=":10296445822_11" function="internal">
        <lane id=":10296445822_11_0" index="0" disallow="tram rail_urban rail rail_electric rail_fast ship container cable_car subway aircraft wheelchair scooter drone" speed="3.66" length="1.45" shape="1320.09,1637.36 1321.54,1637.47"/>
    </edge>
    <edge id=":10296445822_13" function="internal">
        <lane id=":10296445822_13_0" index="0" disallow="tram rail_urban rail rail_electric rail_fast ship container cable_car subway aircraft wheelchair scooter drone" speed="3.66" length="3.26" shape="1321.54,1637.47 1322.29,1637.97 1322.33,1638.87 1321.67,1640.17"/>
    </edge>
    <edge id=":10296445823_0" function="internal">
        <lane id=":10296445823_0_0" index="0" disallow="tram rail_urban rail rail_electric rail_fast ship container cable_car subway aircraft wheelchair scooter drone" speed="8.71" length="8.15" width="4.00" shape="1357.53,1652.05 1356.50,1650.78 1355.00,1649.74 1353.00,1648.94 1350.53,1648.36"/>
    </edge>
    <edge id=":10296445823_1" function="internal">
        <lane id=":10296445823_1_0" index="0" disallow="tram rail_urban rail rail_electric rail_fast ship container cable_car subway aircraft wheelchair scooter drone" speed="27.78" length="8.86" shape="1357.53,1652.05 1353.21,1644.27"/>
        <lane id=":10296445823_1_1" index="1" disallow="tram rail_urban rail rail_electric rail_fast ship container cable_car subway aircraft wheelchair scooter drone" speed="27.78" length="8.86" shape="1360.31,1650.47 1356.01,1642.71"/>
        <lane id=":10296445823_1_2" index="2" disallow="tram rail_urban rail rail_electric rail_fast ship container cable_car subway aircraft wheelchair scooter drone" speed="27.78" length="8.86" shape="1363.10,1648.89 1358.81,1641.16"/>
        <lane id=":10296445823_1_3" index="3" disallow="tram rail_urban rail rail_electric rail_fast ship container cable_car subway aircraft wheelchair scooter drone" speed="27.78" length="8.86" shape="1365.88,1647.32 1361.61,1639.61"/>
    </edge>
    <edge id=":10296445824_0" function="internal">
        <lane id=":10296445824_0_0" index="0" disallow="tram rail_urban rail rail_electric rail_fast ship container cable_car subway aircraft wheelchair scooter drone" speed="27.78" length="12.68" shape="1331.88,1596.65 1325.97,1585.55"/>
        <lane id=":10296445824_0_1" index="1" disallow="tram rail_urban rail rail_electric rail_fast ship container cable_car subway aircraft wheelchair scooter drone" speed="27.78" length="12.68" shape="1334.71,1595.16 1328.77,1583.99"/>
        <lane id=":10296445824_0_2" index="2" disallow="tram rail_urban rail rail_electric rail_fast ship container cable_car subway aircraft wheelchair scooter drone" speed="27.78" length="12.68" shape="1337.54,1593.66 1331.56,1582.44"/>
        <lane id=":10296445824_0_3" index="3" disallow="tram rail_urban rail rail_electric rail_fast ship container cable_car subway aircraft wheelchair scooter drone" speed="27.78" length="12.68" shape="1340.36,1592.17 1334.36,1580.89"/>
    </edge>
    <edge id=":10296445824_4" function="internal">
        <lane id=":10296445824_4_0" index="0" disallow="tram rail_urban rail rail_electric rail_fast ship container cable_car subway aircraft wheelchair scooter drone" speed="11.26" length="11.79" shape="1327.28,1596.96 1327.86,1594.03 1327.83,1591.16 1327.20,1588.33 1325.97,1585.55"/>
        <lane id=":10296445824_4_1" index="1" disallow="tram rail_urban rail rail_electric rail_fast ship container cable_car subway aircraft wheelchair scooter drone" speed="11.90" length="13.24" shape="1327.28,1596.96 1328.51,1592.33 1329.17,1588.62 1329.25,1585.85 1328.77,1583.99"/>
    </edge>
    <edge id=":10542328776_0" function="internal">
        <lane id=":10542328776_0_0" index="0" disallow="tram rail_urban rail rail_electric rail_fast ship container cable_car subway aircraft wheelchair scooter drone" speed="13.89" length="8.08" shape="611.64,1645.20 607.27,1652.00"/>
    </edge>
    <edge id=":10542328776_1" function="internal">
        <lane id=":10542328776_1_0" index="0" disallow="tram rail_urban rail rail_electric rail_fast ship container cable_car subway aircraft wheelchair scooter drone" speed="5.95" length="3.16" shape="611.64,1645.20 609.63,1647.49 609.51,1647.51"/>
    </edge>
    <edge id=":10542328776_2" function="internal">
        <lane id=":10542328776_2_0" index="0" disallow="tram rail_urban rail rail_electric rail_fast ship container cable_car subway aircraft wheelchair scooter drone" speed="3.65" length="1.44" shape="611.64,1645.20 610.32,1645.78"/>
    </edge>
    <edge id=":10542328776_6" function="internal">
        <lane id=":10542328776_6_0" index="0" disallow="tram rail_urban rail rail_electric rail_fast ship container cable_car subway aircraft wheelchair scooter drone" speed="5.95" length="7.91" shape="609.51,1647.51 607.74,1647.88 605.97,1646.37 604.32,1642.97"/>
    </edge>
    <edge id=":10542328776_7" function="internal">
        <lane id=":10542328776_7_0" index="0" disallow="tram rail_urban rail rail_electric rail_fast ship container cable_car subway aircraft wheelchair scooter drone" speed="3.65" length="3.23" shape="610.32,1645.78 609.43,1645.68 608.97,1644.92 608.94,1643.47"/>
    </edge>
    <edge id=":10542328776_3" function="internal">
        <lane id=":10542328776_3_0" index="0" disallow="tram rail_urban rail rail_electric rail_fast ship container cable_car subway aircraft wheelchair scooter drone" speed="8.15" length="7.52" shape="604.59,1650.25 605.15,1648.91 605.29,1647.26 605.02,1645.27 604.32,1642.97"/>
    </edge>
    <edge id=":10542328776_4" function="internal">
        <lane id=":10542328776_4_0" index="0" disallow="tram rail_urban rail rail_electric rail_fast ship container cable_car subway aircraft wheelchair scooter drone" speed="13.89" length="8.05" shape="604.59,1650.25 608.94,1643.47"/>
    </edge>
    <edge id=":10542328776_5" function="internal">
        <lane id=":10542328776_5_0" index="0" disallow="tram rail_urban rail rail_electric rail_fast ship container cable_car subway aircraft wheelchair scooter drone" speed="3.65" length="1.44" shape="604.59,1650.25 605.92,1649.68"/>
    </edge>
    <edge id=":10542328776_8" function="internal">
        <lane id=":10542328776_8_0" index="0" disallow="tram rail_urban rail rail_electric rail_fast ship container cable_car subway aircraft wheelchair scooter drone" speed="3.65" length="3.23" shape="605.92,1649.68 606.81,1649.79 607.26,1650.56 607.27,1652.00"/>
    </edge>
    <edge id=":106078638_0" function="internal">
        <lane id=":106078638_0_0" index="0" disallow="tram rail_urban rail rail_electric rail_fast ship container cable_car subway aircraft wheelchair scooter drone" speed="13.08" length="15.76" shape="775.54,920.04 771.60,917.38 767.93,916.59 764.36,916.80 760.70,917.13"/>
    </edge>
    <edge id=":106078638_1" function="internal">
        <lane id=":106078638_1_0" index="0" disallow="tram rail_urban rail rail_electric rail_fast ship container cable_car subway aircraft wheelchair scooter drone" speed="27.78" length="17.48" shape="775.54,920.04 762.70,908.32"/>
        <lane id=":106078638_1_1" index="1" disallow="tram rail_urban rail rail_electric rail_fast ship container cable_car subway aircraft wheelchair scooter drone" speed="27.78" length="17.48" shape="777.74,917.71 764.85,905.95"/>
        <lane id=":106078638_1_2" index="2" disallow="tram rail_urban rail rail_electric rail_fast ship container cable_car subway aircraft wheelchair scooter drone" speed="27.78" length="17.48" shape="779.93,915.39 767.00,903.58"/>
        <lane id=":106078638_1_3" index="3" disallow="tram rail_urban rail rail_electric rail_fast ship container cable_car subway aircraft wheelchair scooter drone" speed="27.78" length="17.48" shape="782.13,913.06 769.15,901.21"/>
    </edge>
    <edge id=":106078638_5" function="internal">
        <lane id=":106078638_5_0" index="0" disallow="tram rail_urban rail rail_electric rail_fast ship container cable_car subway aircraft wheelchair scooter drone" speed="5.47" length="9.82" shape="760.62,913.88 763.75,913.47 765.14,912.40 764.79,910.69 762.70,908.32"/>
        <lane id=":106078638_5_1" index="1" disallow="tram rail_urban rail rail_electric rail_fast ship container cable_car subway aircraft wheelchair scooter drone" speed="6.53" length="14.76" shape="760.62,913.88 765.63,913.28 768.00,911.76 767.74,909.31 764.85,905.95"/>
        <lane id=":106078638_5_2" index="2" disallow="tram rail_urban rail rail_electric rail_fast ship container cable_car subway aircraft wheelchair scooter drone" speed="7.45" length="19.72" shape="760.62,913.88 767.51,913.09 770.86,911.11 770.69,907.94 767.00,903.58"/>
    </edge>
    <edge id=":106078638_8" function="internal">
        <lane id=":106078638_8_0" index="0" disallow="tram rail_urban rail rail_electric rail_fast ship container cable_car subway aircraft wheelchair scooter drone" speed="3.67" length="4.74" shape="760.62,913.88 761.86,914.66 762.29,915.46 761.90,916.28 760.70,917.13"/>
    </edge>
    <edge id=":11285432567_0" function="internal">
        <lane id=":11285432567_0_0" index="0" disallow="tram rail_urban rail rail_electric rail_fast ship container cable_car subway aircraft wheelchair scooter drone" speed="4.56" length="7.30" width="5.00" shape="875.14,1940.78 873.99,1942.72 872.78,1943.42 871.50,1942.86 870.14,1941.06"/>
    </edge>
    <edge id=":11420299574_0" function="internal">
        <lane id=":11420299574_0_0" index="0" disallow="tram rail_urban rail rail_electric rail_fast ship container cable_car subway aircraft wheelchair scooter drone" speed="27.78" length="0.16" shape="1421.21,1587.08 1421.12,1587.12"/>
        <lane id=":11420299574_0_1" index="1" disallow="tram rail_urban rail rail_electric rail_fast ship container cable_car subway aircraft wheelchair scooter drone" speed="27.78" length="0.16" shape="1419.83,1584.19 1419.64,1584.29"/>
    </edge>
    <edge id=":11420299574_2" function="internal">
        <lane id=":11420299574_2_0" index="0" disallow="tram rail_urban rail rail_electric rail_fast ship container cable_car subway aircraft wheelchair scooter drone" speed="27.78" length="0.39" shape="1416.66,1578.62 1417.06,1578.42"/>
        <lane id=":11420299574_2_1" index="1" disallow="tram rail_urban rail rail_electric rail_fast ship container cable_car subway aircraft wheelchair scooter drone" speed="27.78" length="0.39" shape="1418.15,1581.46 1418.45,1581.31"/>
    </edge>
    <edge id=":1498111685_0" function="internal">
        <lane id=":1498111685_0_0" index="0" disallow="tram rail_urban rail rail_electric rail_fast ship container cable_car subway aircraft wheelchair scooter drone" speed="27.78" length="11.10" shape="1052.02,1189.32 1043.20,1182.35"/>
        <lane id=":1498111685_0_1" index="1" disallow="tram rail_urban rail rail_electric rail_fast ship container cable_car subway aircraft wheelchair scooter drone" speed="27.78" length="11.10" shape="1054.12,1186.92 1045.54,1180.12"/>
    </edge>
    <edge id=":1498111685_2" function="internal">
        <lane id=":1498111685_2_0" index="0" disallow="tram rail_urban rail rail_electric rail_fast ship container cable_car subway aircraft wheelchair scooter drone" speed="8.07" length="9.17" shape="1054.12,1186.92 1052.81,1185.33 1052.07,1183.38 1051.91,1181.07 1052.32,1178.39"/>
    </edge>
    <edge id=":1731422785_0" function="internal">
        <lane id=":1731422785_0_0" index="0" disallow="tram rail_urban rail rail_electric rail_fast ship container cable_car subway aircraft wheelchair scooter drone" speed="27.78" length="0.28" shape="1428.18,1583.74 1427.94,1583.85"/>
        <lane id=":1731422785_0_1" index="1" disallow="tram rail_urban rail rail_electric rail_fast ship container cable_car subway aircraft wheelchair scooter drone" speed="27.78" length="0.28" shape="1426.82,1580.84 1426.56,1580.97"/>
    </edge>
    <edge id=":1731422785_2" function="internal">
        <lane id=":1731422785_2_0" index="0" disallow="tram rail_urban rail rail_electric rail_fast ship container cable_car subway aircraft wheelchair scooter drone" speed="27.78" length="0.32" shape="1423.79,1575.20 1424.09,1575.05"/>
        <lane id=":1731422785_2_1" index="1" disallow="tram rail_urban rail rail_electric rail_fast ship container cable_car subway aircraft wheelchair scooter drone" speed="27.78" length="0.32" shape="1425.17,1578.08 1425.45,1577.95"/>
    </edge>
    <edge id=":1748294274_0" function="internal">
        <lane id=":1748294274_0_0" index="0" disallow="tram rail_urban rail rail_electric rail_fast ship container cable_car subway aircraft wheelchair scooter drone" speed="13.89" length="8.81" shape="632.81,1607.68 628.45,1615.33"/>
    </edge>
    <edge id=":1748294274_1" function="internal">
        <lane id=":1748294274_1_0" index="0" disallow="tram rail_urban rail rail_electric rail_fast ship container cable_car subway aircraft wheelchair scooter drone" speed="3.65" length="1.44" shape="632.81,1607.68 631.54,1608.36"/>
    </edge>
    <edge id=":1748294274_6" function="internal">
        <lane id=":1748294274_6_0" index="0" disallow="tram rail_urban rail rail_electric rail_fast ship container cable_car subway aircraft wheelchair scooter drone" speed="3.65" length="3.23" shape="631.54,1608.36 630.65,1608.34 630.13,1607.60 629.99,1606.17"/>
    </edge>
    <edge id=":1748294274_2" function="internal">
        <lane id=":1748294274_2_0" index="0" disallow="tram rail_urban rail rail_electric rail_fast ship container cable_car subway aircraft wheelchair scooter drone" speed="9.00" length="8.23" shape="623.08,1610.20 625.54,1609.48 627.52,1608.57 629.00,1607.47 629.99,1606.17"/>
    </edge>
    <edge id=":1748294274_3" function="internal">
        <lane id=":1748294274_3_0" index="0" disallow="tram rail_urban rail rail_electric rail_fast ship container cable_car subway aircraft wheelchair scooter drone" speed="5.94" length="11.55" shape="623.08,1610.20 627.02,1609.69 629.23,1610.38 629.71,1612.26 628.45,1615.33"/>
    </edge>
    <edge id=":1748294274_4" function="internal">
        <lane id=":1748294274_4_0" index="0" disallow="tram rail_urban rail rail_electric rail_fast ship container cable_car subway aircraft wheelchair scooter drone" speed="13.89" length="8.70" shape="625.68,1613.73 629.99,1606.17"/>
    </edge>
    <edge id=":1748294274_5" function="internal">
        <lane id=":1748294274_5_0" index="0" disallow="tram rail_urban rail rail_electric rail_fast ship container cable_car subway aircraft wheelchair scooter drone" speed="3.65" length="1.44" shape="625.68,1613.73 626.97,1613.09"/>
    </edge>
    <edge id=":1748294274_7" function="internal">
        <lane id=":1748294274_7_0" index="0" disallow="tram rail_urban rail rail_electric rail_fast ship container cable_car subway aircraft wheelchair scooter drone" speed="3.65" length="3.23" shape="626.97,1613.09 627.87,1613.14 628.36,1613.89 628.45,1615.33"/>
    </edge>
    <edge id=":1901865134_0" function="internal">
        <lane id=":1901865134_0_0" index="0" disallow="tram rail_urban rail rail_electric rail_fast ship container cable_car subway aircraft wheelchair scooter drone" speed="27.78" length="9.44" shape="558.84,714.06 551.79,707.73"/>
        <lane id=":1901865134_0_1" index="1" disallow="tram rail_urban rail rail_electric rail_fast ship container cable_car subway aircraft wheelchair scooter drone" speed="27.78" length="9.44" shape="560.97,711.67 553.94,705.36"/>
        <lane id=":1901865134_0_2" index="2" disallow="tram rail_urban rail rail_electric rail_fast ship container cable_car subway aircraft wheelchair scooter drone" speed="27.78" length="9.44" shape="563.10,709.28 556.09,702.98"/>
        <lane id=":1901865134_0_3" index="3" disallow="tram rail_urban rail rail_electric rail_fast ship container cable_car subway aircraft wheelchair scooter drone" speed="27.78" length="9.44" shape="565.23,706.90 558.23,700.61"/>
    </edge>
    <edge id=":1901865134_4" function="internal">
        <lane id=":1901865134_4_0" index="0" disallow="tram rail_urban rail rail_electric rail_fast ship container cable_car subway aircraft wheelchair scooter drone" speed="6.08" length="7.77" shape="565.23,706.90 563.31,704.91 562.23,703.17 562.00,701.65 562.62,700.38"/>
    </edge>
    <edge id=":1901865134_5" function="internal">
        <lane id=":1901865134_5_0" index="0" disallow="tram rail_urban rail rail_electric rail_fast ship container cable_car subway aircraft wheelchair scooter drone" speed="6.86" length="10.18" shape="564.99,702.52 562.85,704.31 560.65,704.98 558.40,704.54 556.09,702.98"/>
        <lane id=":1901865134_5_1" index="1" disallow="tram rail_urban rail rail_electric rail_fast ship container cable_car subway aircraft wheelchair scooter drone" speed="6.08" length="7.77" shape="564.99,702.52 563.79,703.27 562.26,703.20 560.41,702.31 558.23,700.61"/>
    </edge>
    <edge id=":1901865134_7" function="internal">
        <lane id=":1901865134_7_0" index="0" disallow="tram rail_urban rail rail_electric rail_fast ship container cable_car subway aircraft wheelchair scooter drone" speed="3.65" length="4.67" shape="564.99,702.52 563.60,702.87 562.73,702.64 562.41,701.80 562.62,700.38"/>
    </edge>
    <edge id=":1901865135_0" function="internal">
        <lane id=":1901865135_0_0" index="0" disallow="tram rail_urban rail rail_electric rail_fast ship container cable_car subway aircraft wheelchair scooter drone" speed="27.78" length="9.65" shape="572.46,685.18 579.48,692.06"/>
        <lane id=":1901865135_0_1" index="1" disallow="tram rail_urban rail rail_electric rail_fast ship container cable_car subway aircraft wheelchair scooter drone" speed="27.78" length="9.65" shape="570.26,687.51 577.20,694.30"/>
        <lane id=":1901865135_0_2" index="2" disallow="tram rail_urban rail rail_electric rail_fast ship container cable_car subway aircraft wheelchair scooter drone" speed="27.78" length="9.65" shape="568.07,689.84 574.92,696.55"/>
        <lane id=":1901865135_0_3" index="3" disallow="tram rail_urban rail rail_electric rail_fast ship container cable_car subway aircraft wheelchair scooter drone" speed="27.78" length="9.65" shape="565.88,692.17 572.64,698.79"/>
    </edge>
    <edge id=":1901865135_4" function="internal">
        <lane id=":1901865135_4_0" index="0" disallow="tram rail_urban rail rail_electric rail_fast ship container cable_car subway aircraft wheelchair scooter drone" speed="6.17" length="7.88" shape="565.88,692.17 567.74,694.20 568.76,696.00 568.93,697.56 568.26,698.89"/>
    </edge>
    <edge id=":1901865135_5" function="internal">