<?xml version="1.0" encoding="UTF-8"?>

<!-- generated on 2025-06-12 17:37:25 by Eclipse SUMO netedit Version 1.22.0
<neteditConfiguration xmlns:xsi="http://www.w3.org/2001/XMLSchema-instance" xsi:noNamespaceSchemaLocation="http://sumo.dlr.de/xsd/neteditConfiguration.xsd">

    <input>
        <sumo-net-file value="C:\ITS\Traffic Light Control\Simulation Lab\CauGiay\sumo\Long_region\Long_region_2_PVB.net.xml"/>
    </input>

    <output>
        <output-file value="C:\ITS\Traffic Light Control\Simulation Lab\CauGiay\sumo\Long_region\Long_region_2_PVB.net.xml"/>
    </output>

    <processing>
        <geometry.min-radius.fix.railways value="false"/>
        <geometry.avoid-overlap value="0"/>
        <geometry.max-grade.fix value="false"/>
        <offset.disable-normalization value="true"/>
        <lefthand value="0"/>
    </processing>

    <junctions>
        <no-turnarounds value="true"/>
        <junctions.corner-detail value="5"/>
        <junctions.limit-turn-speed value="5.50"/>
        <rectangular-lane-cut value="0"/>
    </junctions>

    <pedestrian>
        <walkingareas value="0"/>
    </pedestrian>

</neteditConfiguration>
-->

<net version="1.20" junctionCornerDetail="5" limitTurnSpeed="5.50" avoidOverlap="0" xmlns:xsi="http://www.w3.org/2001/XMLSchema-instance" xsi:noNamespaceSchemaLocation="http://sumo.dlr.de/xsd/net_file.xsd">

<<<<<<< HEAD
    <location netOffset="-581389.32,-2324474.03" convBoundary="314.79,515.69,752.44,866.40" origBoundary="105.783214,21.019174,105.792669,21.030243" projParameter="+proj=utm +zone=48 +ellps=WGS84 +datum=WGS84 +units=m +no_defs"/>

    <type id="highway.residential" priority="3" numLanes="1" speed="13.89" disallow="tram rail_urban rail rail_electric rail_fast ship container cable_car subway aircraft wheelchair scooter drone" oneway="0"/>
    <type id="highway.secondary" priority="11" numLanes="1" speed="27.78" disallow="tram rail_urban rail rail_electric rail_fast ship container cable_car subway aircraft wheelchair scooter drone" oneway="0"/>

=======
    <location netOffset="-581389.32,-2324474.03" convBoundary="83.70,261.91,835.47,1222.75" origBoundary="105.783214,21.019174,105.792669,21.030243" projParameter="+proj=utm +zone=48 +ellps=WGS84 +datum=WGS84 +units=m +no_defs"/>

    <type id="highway.residential" priority="3" numLanes="1" speed="13.89" disallow="tram rail_urban rail rail_electric rail_fast ship container cable_car subway aircraft wheelchair scooter drone" oneway="0"/>
    <type id="highway.secondary" priority="11" numLanes="1" speed="27.78" disallow="tram rail_urban rail rail_electric rail_fast ship container cable_car subway aircraft wheelchair scooter drone" oneway="0"/>
    <type id="highway.secondary_link" priority="6" numLanes="1" speed="22.22" disallow="tram rail_urban rail rail_electric rail_fast ship container cable_car subway aircraft wheelchair scooter drone" oneway="0"/>

    <edge id=":10203920310_0" function="internal">
        <lane id=":10203920310_0_0" index="0" disallow="tram rail_urban rail rail_electric rail_fast ship container cable_car subway aircraft wheelchair scooter drone" speed="12.61" length="11.38" width="7.11" shape="751.48,493.05 748.75,490.99 746.56,489.87 744.23,489.39 741.10,489.26"/>
    </edge>
    <edge id=":10203920310_1" function="internal">
        <lane id=":10203920310_1_0" index="0" disallow="tram rail_urban rail rail_electric rail_fast ship container cable_car subway aircraft wheelchair scooter drone" speed="27.78" length="8.98" shape="753.63,490.41 751.45,488.94 749.76,488.23 748.07,487.51 745.89,486.04"/>
        <lane id=":10203920310_1_1" index="1" disallow="tram rail_urban rail rail_electric rail_fast ship container cable_car subway aircraft wheelchair scooter drone" speed="27.78" length="8.98" shape="755.77,487.78 753.57,486.32 751.84,485.67 750.11,485.01 747.91,483.56"/>
        <lane id=":10203920310_1_2" index="2" disallow="tram rail_urban rail rail_electric rail_fast ship container cable_car subway aircraft wheelchair scooter drone" speed="27.78" length="8.98" shape="757.92,485.14 755.70,483.71 753.93,483.11 752.16,482.51 749.93,481.08"/>
    </edge>
    <edge id=":10203920323_0" function="internal">
        <lane id=":10203920323_0_0" index="0" disallow="tram rail_urban rail rail_electric rail_fast ship container cable_car subway aircraft wheelchair scooter drone" speed="22.22" length="0.30" width="7.11" shape="749.47,433.95 749.53,434.25"/>
    </edge>
    <edge id=":10203920324_0" function="internal">
        <lane id=":10203920324_0_0" index="0" disallow="tram rail_urban rail rail_electric rail_fast ship container cable_car subway aircraft wheelchair scooter drone" speed="27.78" length="11.51" shape="672.53,493.56 678.10,483.54"/>
        <lane id=":10203920324_0_1" index="1" disallow="tram rail_urban rail rail_electric rail_fast ship container cable_car subway aircraft wheelchair scooter drone" speed="27.78" length="11.51" shape="675.31,495.14 680.91,485.08"/>
        <lane id=":10203920324_0_2" index="2" disallow="tram rail_urban rail rail_electric rail_fast ship container cable_car subway aircraft wheelchair scooter drone" speed="27.78" length="11.51" shape="678.10,496.72 683.72,486.61"/>
    </edge>
    <edge id=":10203920324_3" function="internal">
        <lane id=":10203920324_3_0" index="0" disallow="tram rail_urban rail rail_electric rail_fast ship container cable_car subway aircraft wheelchair scooter drone" speed="6.45" length="8.80" shape="678.10,496.72 679.81,494.15 681.50,492.58 683.14,491.98 684.75,492.38"/>
        <lane id=":10203920324_3_1" index="1" disallow="tram rail_urban rail rail_electric rail_fast ship container cable_car subway aircraft wheelchair scooter drone" speed="5.48" length="6.07" shape="678.10,496.72 679.12,495.37 680.32,494.67 681.67,494.60 683.20,495.17"/>
    </edge>
    <edge id=":10203920325_0" function="internal">
        <lane id=":10203920325_0_0" index="0" disallow="tram rail_urban rail rail_electric rail_fast ship container cable_car subway aircraft wheelchair scooter drone" speed="27.78" length="5.69" shape="696.62,492.65 693.76,497.56"/>
        <lane id=":10203920325_0_1" index="1" disallow="tram rail_urban rail rail_electric rail_fast ship container cable_car subway aircraft wheelchair scooter drone" speed="27.78" length="5.69" shape="693.78,491.04 690.98,495.99"/>
        <lane id=":10203920325_0_2" index="2" disallow="tram rail_urban rail rail_electric rail_fast ship container cable_car subway aircraft wheelchair scooter drone" speed="27.78" length="5.69" shape="690.95,489.44 688.19,494.41"/>
    </edge>
    <edge id=":10203920325_3" function="internal">
        <lane id=":10203920325_3_0" index="0" disallow="tram rail_urban rail rail_electric rail_fast ship container cable_car subway aircraft wheelchair scooter drone" speed="5.84" length="7.10" shape="684.93,492.48 686.31,493.11 688.46,494.09 690.36,495.14 690.98,495.99"/>
        <lane id=":10203920325_3_1" index="1" disallow="tram rail_urban rail rail_electric rail_fast ship container cable_car subway aircraft wheelchair scooter drone" speed="4.99" length="4.90" shape="683.37,495.27 688.19,494.41"/>
    </edge>
    <edge id=":10203920328_0" function="internal">
        <lane id=":10203920328_0_0" index="0" disallow="tram rail_urban rail rail_electric rail_fast ship container cable_car subway aircraft wheelchair scooter drone" speed="5.68" length="6.81" shape="739.80,398.01 738.50,397.30 736.51,396.22 734.78,395.09 734.28,394.23"/>
        <lane id=":10203920328_0_1" index="1" disallow="tram rail_urban rail rail_electric rail_fast ship container cable_car subway aircraft wheelchair scooter drone" speed="4.86" length="4.68" shape="741.54,395.32 736.91,396.05"/>
    </edge>
    <edge id=":10203920328_2" function="internal">
        <lane id=":10203920328_2_0" index="0" disallow="tram rail_urban rail rail_electric rail_fast ship container cable_car subway aircraft wheelchair scooter drone" speed="16.67" length="5.86" shape="728.47,397.50 731.65,392.40"/>
        <lane id=":10203920328_2_1" index="1" disallow="tram rail_urban rail rail_electric rail_fast ship container cable_car subway aircraft wheelchair scooter drone" speed="16.67" length="5.86" shape="731.24,399.23 734.28,394.23"/>
        <lane id=":10203920328_2_2" index="2" disallow="tram rail_urban rail rail_electric rail_fast ship container cable_car subway aircraft wheelchair scooter drone" speed="16.67" length="5.86" shape="734.00,400.96 736.91,396.05"/>
    </edge>
    <edge id=":10203920329_0" function="internal">
        <lane id=":10203920329_0_0" index="0" disallow="tram rail_urban rail rail_electric rail_fast ship container cable_car subway aircraft wheelchair scooter drone" speed="16.67" length="11.36" width="3.26" shape="751.48,398.39 745.64,408.11"/>
        <lane id=":10203920329_0_1" index="1" disallow="tram rail_urban rail rail_electric rail_fast ship container cable_car subway aircraft wheelchair scooter drone" speed="16.67" length="11.36" width="3.26" shape="748.70,396.70 742.84,406.44"/>
        <lane id=":10203920329_0_2" index="2" disallow="tram rail_urban rail rail_electric rail_fast ship container cable_car subway aircraft wheelchair scooter drone" speed="16.67" length="11.36" width="3.26" shape="745.91,395.01 740.04,404.76"/>
    </edge>
    <edge id=":10203920329_3" function="internal">
        <lane id=":10203920329_3_0" index="0" disallow="tram rail_urban rail rail_electric rail_fast ship container cable_car subway aircraft wheelchair scooter drone" speed="5.96" length="7.55" shape="745.91,395.01 744.40,397.07 742.91,398.28 741.43,398.63 739.97,398.12"/>
        <lane id=":10203920329_3_1" index="1" disallow="tram rail_urban rail rail_electric rail_fast ship container cable_car subway aircraft wheelchair scooter drone" speed="4.93" length="4.83" shape="745.91,395.01 745.13,395.88 744.17,396.24 743.03,396.09 741.70,395.43"/>
    </edge>
    <edge id=":10203920335_0" function="internal">
        <lane id=":10203920335_0_0" index="0" disallow="tram rail_urban rail rail_electric rail_fast ship container cable_car subway aircraft wheelchair scooter drone" speed="22.22" length="0.30" width="7.11" shape="676.25,455.88 676.17,455.60"/>
    </edge>
    <edge id=":10203920337_0" function="internal">
        <lane id=":10203920337_0_0" index="0" disallow="tram rail_urban rail rail_electric rail_fast ship container cable_car subway aircraft wheelchair scooter drone" speed="22.22" length="0.30" width="7.11" shape="720.27,490.68 719.98,490.73"/>
    </edge>
    <edge id=":10206343448_0" function="internal">
        <lane id=":10206343448_0_0" index="0" disallow="tram rail_urban rail rail_electric rail_fast ship container cable_car subway aircraft wheelchair scooter drone" speed="27.78" length="2.95" shape="644.27,584.73 642.67,587.33"/>
        <lane id=":10206343448_0_1" index="1" disallow="tram rail_urban rail rail_electric rail_fast ship container cable_car subway aircraft wheelchair scooter drone" speed="27.78" length="2.95" shape="641.44,583.12 639.94,585.66"/>
        <lane id=":10206343448_0_2" index="2" disallow="tram rail_urban rail rail_electric rail_fast ship container cable_car subway aircraft wheelchair scooter drone" speed="27.78" length="2.95" shape="638.60,581.51 637.21,583.99"/>
    </edge>
    <edge id=":10211128478_0" function="internal">
        <lane id=":10211128478_0_0" index="0" disallow="tram rail_urban rail rail_electric rail_fast ship container cable_car subway aircraft wheelchair scooter drone" speed="13.89" length="3.00" width="3.26" shape="772.74,362.88 771.24,365.51"/>
        <lane id=":10211128478_0_1" index="1" disallow="tram rail_urban rail rail_electric rail_fast ship container cable_car subway aircraft wheelchair scooter drone" speed="13.89" length="3.00" width="3.26" shape="769.98,361.26 768.45,363.83"/>
        <lane id=":10211128478_0_2" index="2" disallow="tram rail_urban rail rail_electric rail_fast ship container cable_car subway aircraft wheelchair scooter drone" speed="13.89" length="3.00" width="3.26" shape="767.22,359.64 765.65,362.15"/>
    </edge>
>>>>>>> 31d75800deed793a3919be79716c3521bd9e4635
    <edge id=":10225394963_0" function="internal">
        <lane id=":10225394963_0_0" index="0" disallow="tram rail_urban rail rail_electric rail_fast ship container cable_car subway aircraft wheelchair scooter drone" speed="13.89" length="0.10" width="3.32" shape="647.09,624.48 647.09,624.48"/>
    </edge>
    <edge id=":10225394963_1" function="internal">
        <lane id=":10225394963_1_0" index="0" disallow="tram rail_urban rail rail_electric rail_fast ship container cable_car subway aircraft wheelchair scooter drone" speed="13.89" length="0.10" width="3.32" shape="649.15,621.88 649.15,621.88"/>
    </edge>
    <edge id=":10225395076_0" function="internal">
        <lane id=":10225395076_0_0" index="0" disallow="tram rail_urban rail rail_electric rail_fast ship container cable_car subway aircraft wheelchair scooter drone" speed="13.89" length="0.10" width="5.53" shape="547.52,795.16 547.52,795.17"/>
    </edge>
    <edge id=":10225395076_1" function="internal">
        <lane id=":10225395076_1_0" index="0" disallow="tram rail_urban rail rail_electric rail_fast ship container cable_car subway aircraft wheelchair scooter drone" speed="13.89" length="0.10" width="5.53" shape="550.28,790.37 550.28,790.38"/>
    </edge>
<<<<<<< HEAD
    <edge id=":1748294250_0" function="internal">
        <lane id=":1748294250_0_0" index="0" disallow="tram rail_urban rail rail_electric rail_fast ship container cable_car subway aircraft wheelchair scooter drone" speed="13.89" length="15.07" shape="619.65,604.78 607.10,596.44"/>
    </edge>
    <edge id=":1748294250_1" function="internal">
        <lane id=":1748294250_1_0" index="0" disallow="tram rail_urban rail rail_electric rail_fast ship container cable_car subway aircraft wheelchair scooter drone" speed="3.65" length="4.67" shape="619.65,604.78 619.08,603.46 619.18,602.57 619.94,602.11 621.39,602.09"/>
    </edge>
    <edge id=":1748294250_2" function="internal">
        <lane id=":1748294250_2_0" index="0" disallow="tram rail_urban rail rail_electric rail_fast ship container cable_car subway aircraft wheelchair scooter drone" speed="13.89" length="14.99" shape="608.90,593.80 621.39,602.09"/>
    </edge>
    <edge id=":1748294250_3" function="internal">
        <lane id=":1748294250_3_0" index="0" disallow="tram rail_urban rail rail_electric rail_fast ship container cable_car subway aircraft wheelchair scooter drone" speed="3.65" length="4.67" shape="608.90,593.80 609.44,595.13 609.32,596.02 608.54,596.45 607.10,596.44"/>
    </edge>
    <edge id=":1748294250_4" function="internal">
        <lane id=":1748294250_4_0" index="0" disallow="tram rail_urban rail rail_electric rail_fast ship container cable_car subway aircraft wheelchair scooter drone" speed="6.82" length="9.15" shape="608.48,604.55 609.44,602.07 609.53,599.89 608.75,598.01 607.10,596.44"/>
    </edge>
    <edge id=":1748294250_5" function="internal">
        <lane id=":1748294250_5_0" index="0" disallow="tram rail_urban rail rail_electric rail_fast ship container cable_car subway aircraft wheelchair scooter drone" speed="6.63" length="10.01" shape="614.24,607.60 616.18,604.43 618.02,602.45 619.76,601.67 621.39,602.09"/>
=======
    <edge id=":10225803198_0" function="internal">
        <lane id=":10225803198_0_0" index="0" disallow="tram rail_urban rail rail_electric rail_fast ship container cable_car subway aircraft wheelchair scooter drone" speed="3.65" length="4.67" shape="243.48,768.30 242.27,767.51 241.87,766.71 242.27,765.91 243.46,765.10"/>
    </edge>
    <edge id=":10225803199_0" function="internal">
        <lane id=":10225803199_0_0" index="0" disallow="tram rail_urban rail rail_electric rail_fast ship container cable_car subway aircraft wheelchair scooter drone" speed="6.39" length="6.13" shape="442.25,871.10 443.01,873.22 443.80,874.75 444.61,875.70 445.44,876.06"/>
    </edge>
    <edge id=":10225803199_1" function="internal">
        <lane id=":10225803199_1_0" index="0" disallow="tram rail_urban rail rail_electric rail_fast ship container cable_car subway aircraft wheelchair scooter drone" speed="27.78" length="6.75" shape="438.72,875.69 440.70,875.51 442.07,875.60 443.44,875.82 445.44,876.06"/>
        <lane id=":10225803199_1_1" index="1" disallow="tram rail_urban rail rail_electric rail_fast ship container cable_car subway aircraft wheelchair scooter drone" speed="27.78" length="6.75" shape="438.47,878.96 440.46,878.77 441.82,878.83 443.19,879.03 445.18,879.25"/>
        <lane id=":10225803199_1_2" index="2" disallow="tram rail_urban rail rail_electric rail_fast ship container cable_car subway aircraft wheelchair scooter drone" speed="27.78" length="6.75" shape="438.23,882.23 440.21,882.03 441.57,882.06 442.94,882.23 444.93,882.44"/>
    </edge>
    <edge id=":10225808970_0" function="internal">
        <lane id=":10225808970_0_0" index="0" disallow="tram rail_urban rail rail_electric rail_fast ship container cable_car subway aircraft wheelchair scooter drone" speed="13.89" length="0.47" shape="415.49,873.56 415.44,873.43 415.41,873.34 415.39,873.24 415.38,873.11"/>
    </edge>
    <edge id=":10225808971_0" function="internal">
        <lane id=":10225808971_0_0" index="0" disallow="tram rail_urban rail rail_electric rail_fast ship container cable_car subway aircraft wheelchair scooter drone" speed="13.89" length="0.78" shape="439.11,864.91 439.30,865.03 439.42,865.14 439.52,865.26 439.63,865.46"/>
    </edge>
    <edge id=":10225965935_0" function="internal">
        <lane id=":10225965935_0_0" index="0" disallow="tram rail_urban rail rail_electric rail_fast ship container cable_car subway aircraft wheelchair scooter drone" speed="8.24" length="9.37" shape="511.65,907.89 510.01,907.41 508.01,907.60 505.64,908.46 502.90,909.98"/>
    </edge>
    <edge id=":10225965935_1" function="internal">
        <lane id=":10225965935_1_0" index="0" disallow="tram rail_urban rail rail_electric rail_fast ship container cable_car subway aircraft wheelchair scooter drone" speed="3.65" length="1.44" shape="511.65,907.89 510.99,906.61"/>
    </edge>
    <edge id=":10225965935_4" function="internal">
        <lane id=":10225965935_4_0" index="0" disallow="tram rail_urban rail rail_electric rail_fast ship container cable_car subway aircraft wheelchair scooter drone" speed="3.65" length="3.23" shape="510.99,906.61 511.03,905.71 511.76,905.21 513.20,905.09"/>
    </edge>
    <edge id=":10225965935_2" function="internal">
        <lane id=":10225965935_2_0" index="0" disallow="tram rail_urban rail rail_electric rail_fast ship container cable_car subway aircraft wheelchair scooter drone" speed="13.89" length="12.18" shape="502.49,899.30 513.20,905.09"/>
    </edge>
    <edge id=":10225965935_3" function="internal">
        <lane id=":10225965935_3_0" index="0" disallow="tram rail_urban rail rail_electric rail_fast ship container cable_car subway aircraft wheelchair scooter drone" speed="5.05" length="7.01" shape="500.99,902.13 502.69,903.35 503.30,904.62 502.79,905.93 501.19,907.28"/>
    </edge>
    <edge id=":11928023887_0" function="internal">
        <lane id=":11928023887_0_0" index="0" disallow="tram rail_urban rail rail_electric rail_fast ship container cable_car subway aircraft wheelchair scooter drone" speed="27.78" length="3.00" shape="504.07,829.05 502.55,831.66"/>
        <lane id=":11928023887_0_1" index="1" disallow="tram rail_urban rail rail_electric rail_fast ship container cable_car subway aircraft wheelchair scooter drone" speed="27.78" length="3.00" shape="501.22,827.48 499.76,830.10"/>
        <lane id=":11928023887_0_2" index="2" disallow="tram rail_urban rail rail_electric rail_fast ship container cable_car subway aircraft wheelchair scooter drone" speed="27.78" length="3.00" shape="498.36,825.90 496.97,828.54"/>
    </edge>
    <edge id=":1219243636_0" function="internal">
        <lane id=":1219243636_0_0" index="0" disallow="tram rail_urban rail rail_electric rail_fast ship container cable_car subway aircraft wheelchair scooter drone" speed="6.58" length="8.36" shape="729.44,435.05 728.22,437.54 727.77,439.63 728.07,441.35 729.13,442.68"/>
        <lane id=":1219243636_0_1" index="1" disallow="tram rail_urban rail rail_electric rail_fast ship container cable_car subway aircraft wheelchair scooter drone" speed="8.06" length="13.02" shape="726.70,433.41 724.98,437.06 724.49,440.24 725.21,442.95 727.16,445.19"/>
    </edge>
    <edge id=":1219243636_2" function="internal">
        <lane id=":1219243636_2_0" index="0" disallow="tram rail_urban rail rail_electric rail_fast ship container cable_car subway aircraft wheelchair scooter drone" speed="15.28" length="16.57" shape="723.95,431.77 722.31,436.45 722.65,440.18 723.04,443.92 721.51,448.67"/>
        <lane id=":1219243636_2_1" index="1" disallow="tram rail_urban rail rail_electric rail_fast ship container cable_car subway aircraft wheelchair scooter drone" speed="15.28" length="16.57" shape="723.95,431.77 721.94,436.11 721.26,439.40 720.63,442.71 718.72,447.11"/>
        <lane id=":1219243636_2_2" index="2" disallow="tram rail_urban rail rail_electric rail_fast ship container cable_car subway aircraft wheelchair scooter drone" speed="15.28" length="16.57" shape="723.95,431.77 715.93,445.54"/>
    </edge>
    <edge id=":1219243636_5" function="internal">
        <lane id=":1219243636_5_0" index="0" disallow="tram rail_urban rail rail_electric rail_fast ship container cable_car subway aircraft wheelchair scooter drone" speed="27.78" length="13.08" shape="718.94,434.55 729.13,442.68"/>
        <lane id=":1219243636_5_1" index="1" disallow="tram rail_urban rail rail_electric rail_fast ship container cable_car subway aircraft wheelchair scooter drone" speed="27.78" length="13.08" shape="716.93,437.04 727.16,445.19"/>
        <lane id=":1219243636_5_2" index="2" disallow="tram rail_urban rail rail_electric rail_fast ship container cable_car subway aircraft wheelchair scooter drone" speed="27.78" length="13.08" shape="714.92,439.53 725.18,447.71"/>
    </edge>
    <edge id=":1219243636_8" function="internal">
        <lane id=":1219243636_8_0" index="0" disallow="tram rail_urban rail rail_electric rail_fast ship container cable_car subway aircraft wheelchair scooter drone" speed="6.97" length="9.16" shape="714.92,439.53 717.23,441.68 718.64,443.66 719.13,445.47 718.72,447.11"/>
        <lane id=":1219243636_8_1" index="1" disallow="tram rail_urban rail rail_electric rail_fast ship container cable_car subway aircraft wheelchair scooter drone" speed="6.07" length="6.72" shape="714.92,439.53 716.11,440.82 716.68,442.25 716.62,443.82 715.93,445.54"/>
    </edge>
    <edge id=":1220930858_0" function="internal">
        <lane id=":1220930858_0_0" index="0" disallow="tram rail_urban rail rail_electric rail_fast ship container cable_car subway aircraft wheelchair scooter drone" speed="5.82" length="7.41" shape="716.72,466.52 714.97,465.50 713.37,465.39 711.92,466.18 710.62,467.88"/>
    </edge>
    <edge id=":1220930858_1" function="internal">
        <lane id=":1220930858_1_0" index="0" disallow="tram rail_urban rail rail_electric rail_fast ship container cable_car subway aircraft wheelchair scooter drone" speed="27.78" length="16.35" shape="719.46,463.10 706.19,454.20"/>
        <lane id=":1220930858_1_1" index="1" disallow="tram rail_urban rail rail_electric rail_fast ship container cable_car subway aircraft wheelchair scooter drone" speed="27.78" length="16.35" shape="722.20,459.68 718.24,456.94 715.22,455.53 712.16,454.17 708.07,451.61"/>
        <lane id=":1220930858_1_2" index="2" disallow="tram rail_urban rail rail_electric rail_fast ship container cable_car subway aircraft wheelchair scooter drone" speed="27.78" length="16.35" shape="724.93,456.26 720.80,453.62 717.53,452.52 714.22,451.48 709.95,449.02"/>
    </edge>
    <edge id=":1220930858_4" function="internal">
        <lane id=":1220930858_4_0" index="0" disallow="tram rail_urban rail rail_electric rail_fast ship container cable_car subway aircraft wheelchair scooter drone" speed="20.84" length="22.37" shape="721.41,448.85 710.62,467.88"/>
        <lane id=":1220930858_4_1" index="1" disallow="tram rail_urban rail rail_electric rail_fast ship container cable_car subway aircraft wheelchair scooter drone" speed="20.84" length="22.37" shape="721.41,448.85 717.78,454.29 714.65,457.58 711.51,460.87 707.84,466.29"/>
        <lane id=":1220930858_4_2" index="2" disallow="tram rail_urban rail rail_electric rail_fast ship container cable_car subway aircraft wheelchair scooter drone" speed="20.84" length="22.37" shape="721.41,448.85 717.30,454.12 713.26,456.79 709.22,459.45 705.06,464.70"/>
    </edge>
    <edge id=":1220930858_7" function="internal">
        <lane id=":1220930858_7_0" index="0" disallow="tram rail_urban rail rail_electric rail_fast ship container cable_car subway aircraft wheelchair scooter drone" speed="7.45" length="13.25" shape="718.62,447.28 716.17,450.74 713.59,452.62 710.89,452.90 708.07,451.61"/>
        <lane id=":1220930858_7_1" index="1" disallow="tram rail_urban rail rail_electric rail_fast ship container cable_car subway aircraft wheelchair scooter drone" speed="5.84" length="7.70" shape="715.83,445.71 714.33,447.94 712.85,449.23 711.39,449.59 709.95,449.02"/>
    </edge>
    <edge id=":1220930870_0" function="internal">
        <lane id=":1220930870_0_0" index="0" disallow="tram rail_urban rail rail_electric rail_fast ship container cable_car subway aircraft wheelchair scooter drone" speed="27.78" length="5.85" width="3.40" shape="695.26,446.07 693.76,445.29 692.51,445.17 691.27,445.05 689.76,444.29"/>
        <lane id=":1220930870_0_1" index="1" disallow="tram rail_urban rail rail_electric rail_fast ship container cable_car subway aircraft wheelchair scooter drone" speed="27.78" length="5.85" width="3.40" shape="697.20,443.52 695.72,442.73 694.51,442.54 693.29,442.36 691.80,441.57"/>
        <lane id=":1220930870_0_2" index="2" disallow="tram rail_urban rail rail_electric rail_fast ship container cable_car subway aircraft wheelchair scooter drone" speed="27.78" length="5.85" width="3.40" shape="699.14,440.98 697.68,440.16 696.50,439.91 695.32,439.67 693.85,438.86"/>
        <lane id=":1220930870_0_3" index="3" disallow="tram rail_urban rail rail_electric rail_fast ship container cable_car subway aircraft wheelchair scooter drone" speed="27.78" length="5.85" width="3.40" shape="699.14,440.98 697.99,439.72 697.52,438.55 697.06,437.39 695.89,436.14"/>
    </edge>
    <edge id=":1221049366_0" function="internal">
        <lane id=":1221049366_0_0" index="0" disallow="tram rail_urban rail rail_electric rail_fast ship container cable_car subway aircraft wheelchair scooter drone" speed="27.78" length="3.00" width="3.26" shape="639.76,592.08 638.25,594.67"/>
        <lane id=":1221049366_0_1" index="1" disallow="tram rail_urban rail rail_electric rail_fast ship container cable_car subway aircraft wheelchair scooter drone" speed="27.78" length="3.00" width="3.26" shape="637.03,590.41 635.47,592.97"/>
        <lane id=":1221049366_0_2" index="2" disallow="tram rail_urban rail rail_electric rail_fast ship container cable_car subway aircraft wheelchair scooter drone" speed="27.78" length="3.00" width="3.26" shape="634.30,588.74 632.69,591.27"/>
    </edge>
    <edge id=":1221053112_0" function="internal">
        <lane id=":1221053112_0_0" index="0" disallow="tram rail_urban rail rail_electric rail_fast ship container cable_car subway aircraft wheelchair scooter drone" speed="27.78" length="13.14" shape="706.03,454.08 695.42,446.19"/>
        <lane id=":1221053112_0_1" index="1" disallow="tram rail_urban rail rail_electric rail_fast ship container cable_car subway aircraft wheelchair scooter drone" speed="27.78" length="13.14" shape="707.91,451.49 697.36,443.64"/>
        <lane id=":1221053112_0_2" index="2" disallow="tram rail_urban rail rail_electric rail_fast ship container cable_car subway aircraft wheelchair scooter drone" speed="27.78" length="13.14" shape="709.79,448.90 699.30,441.10"/>
    </edge>
    <edge id=":1221053112_3" function="internal">
        <lane id=":1221053112_3_0" index="0" disallow="tram rail_urban rail rail_electric rail_fast ship container cable_car subway aircraft wheelchair scooter drone" speed="6.92" length="2.03" shape="709.79,448.90 708.25,447.57"/>
        <lane id=":1221053112_3_1" index="1" disallow="tram rail_urban rail rail_electric rail_fast ship container cable_car subway aircraft wheelchair scooter drone" speed="6.06" length="2.02" shape="709.79,448.90 708.62,447.69 708.50,447.37"/>
    </edge>
    <edge id=":1221053112_10" function="internal">
        <lane id=":1221053112_10_0" index="0" disallow="tram rail_urban rail rail_electric rail_fast ship container cable_car subway aircraft wheelchair scooter drone" speed="6.92" length="7.41" shape="708.25,447.57 707.46,446.88 706.11,444.91 705.71,442.97 706.29,441.06"/>
        <lane id=":1221053112_10_1" index="0" disallow="tram rail_urban rail rail_electric rail_fast ship container cable_car subway aircraft wheelchair scooter drone" speed="6.06" length="4.98" shape="708.50,447.37 708.11,446.24 708.26,444.56 709.08,442.63"/>
    </edge>
    <edge id=":1221053112_5" function="internal">
        <lane id=":1221053112_5_0" index="0" disallow="tram rail_urban rail rail_electric rail_fast ship container cable_car subway aircraft wheelchair scooter drone" speed="6.46" length="8.12" shape="695.33,453.57 696.48,451.19 696.88,449.16 696.53,447.50 695.42,446.19"/>
        <lane id=":1221053112_5_1" index="1" disallow="tram rail_urban rail rail_electric rail_fast ship container cable_car subway aircraft wheelchair scooter drone" speed="7.97" length="12.85" shape="698.08,455.21 699.73,451.65 700.16,448.53 699.37,445.86 697.36,443.64"/>
    </edge>