<?xml version="1.0" encoding="UTF-8"?>

<!-- generated on 2025-05-28 17:26:00 by Eclipse SUMO netedit Version 1.23.1
<neteditConfiguration xmlns:xsi="http://www.w3.org/2001/XMLSchema-instance" xsi:noNamespaceSchemaLocation="http://sumo.dlr.de/xsd/neteditConfiguration.xsd">

    <input>
        <sumo-net-file value="Long_region.net.xml"/>
    </input>

    <output>
        <output-file value="Long_region.net.xml"/>
    </output>

    <processing>
        <geometry.min-radius.fix.railways value="false"/>
        <geometry.avoid-overlap value="false"/>
        <geometry.max-grade.fix value="false"/>
        <offset.disable-normalization value="true"/>
        <lefthand value="0"/>
    </processing>

    <junctions>
        <no-turnarounds value="true"/>
        <junctions.corner-detail value="5"/>
        <junctions.limit-turn-speed value="5.50"/>
        <rectangular-lane-cut value="0"/>
    </junctions>

    <pedestrian>
        <walkingareas value="0"/>
    </pedestrian>

</neteditConfiguration>
-->

<net version="1.20" junctionCornerDetail="5" limitTurnSpeed="5.50" avoidOverlap="0" xmlns:xsi="http://www.w3.org/2001/XMLSchema-instance" xsi:noNamespaceSchemaLocation="http://sumo.dlr.de/xsd/net_file.xsd">

    <location netOffset="-576385.26,-2323475.94" convBoundary="3645.75,1329.33,5717.90,3500.99" origBoundary="105.735219,21.010177,105.803374,21.052611" projParameter="+proj=utm +zone=48 +ellps=WGS84 +datum=WGS84 +units=m +no_defs"/>

    <type id="highway.motorway" priority="14" numLanes="2" speed="39.44" allow="private emergency authority army vip passenger hov taxi bus coach delivery truck trailer motorcycle evehicle custom1 custom2" oneway="1"/>
    <type id="highway.motorway_link" priority="9" numLanes="1" speed="22.22" allow="private emergency authority army vip passenger hov taxi bus coach delivery truck trailer motorcycle evehicle custom1 custom2" oneway="1"/>
    <type id="highway.primary" priority="12" numLanes="2" speed="27.78" disallow="tram rail_urban rail rail_electric rail_fast ship container cable_car subway aircraft wheelchair scooter drone" oneway="0"/>
    <type id="highway.primary_link" priority="7" numLanes="1" speed="22.22" disallow="tram rail_urban rail rail_electric rail_fast ship container cable_car subway aircraft wheelchair scooter drone" oneway="0"/>
    <type id="highway.secondary" priority="11" numLanes="1" speed="27.78" disallow="tram rail_urban rail rail_electric rail_fast ship container cable_car subway aircraft wheelchair scooter drone" oneway="0"/>
    <type id="highway.secondary_link" priority="6" numLanes="1" speed="22.22" disallow="tram rail_urban rail rail_electric rail_fast ship container cable_car subway aircraft wheelchair scooter drone" oneway="0"/>
    <type id="highway.steps" priority="1" numLanes="1" speed="1.39" allow="pedestrian" oneway="1" width="2.00"/>
    <type id="highway.tertiary" priority="10" numLanes="1" speed="22.22" disallow="tram rail_urban rail rail_electric rail_fast ship container cable_car subway aircraft wheelchair scooter drone" oneway="0"/>
    <type id="highway.trunk" priority="13" numLanes="2" speed="27.78" disallow="pedestrian bicycle tram rail_urban rail rail_electric rail_fast ship container cable_car subway aircraft wheelchair scooter drone" oneway="0"/>
    <type id="highway.trunk_link" priority="8" numLanes="1" speed="22.22" disallow="pedestrian bicycle tram rail_urban rail rail_electric rail_fast ship container cable_car subway aircraft wheelchair scooter drone" oneway="0"/>

    <edge id=":10222924459_0" function="internal">
        <lane id=":10222924459_0_0" index="0" disallow="tram rail_urban rail rail_electric rail_fast ship container cable_car subway aircraft wheelchair scooter drone" speed="27.78" length="0.30" shape="4607.19,2028.59 4607.24,2028.89"/>
        <lane id=":10222924459_0_1" index="1" disallow="tram rail_urban rail rail_electric rail_fast ship container cable_car subway aircraft wheelchair scooter drone" speed="27.78" length="0.30" shape="4604.03,2029.07 4604.07,2029.37"/>
        <lane id=":10222924459_0_2" index="2" disallow="tram rail_urban rail rail_electric rail_fast ship container cable_car subway aircraft wheelchair scooter drone" speed="27.78" length="0.30" shape="4600.86,2029.55 4600.91,2029.85"/>
    </edge>
    <edge id=":10225803199_0" function="internal">
        <lane id=":10225803199_0_0" index="0" disallow="tram rail_urban rail rail_electric rail_fast ship container cable_car subway aircraft wheelchair scooter drone" speed="27.78" length="1.83" shape="5448.71,1877.30 5446.89,1877.15"/>
    </edge>
    <edge id=":10225965954_0" function="internal">
        <lane id=":10225965954_0_0" index="0" disallow="tram rail_urban rail rail_electric rail_fast ship container cable_car subway aircraft wheelchair scooter drone" speed="22.22" length="0.32" shape="4674.74,2361.97 4674.42,2362.01"/>
        <lane id=":10225965954_0_1" index="1" disallow="tram rail_urban rail rail_electric rail_fast ship container cable_car subway aircraft wheelchair scooter drone" speed="22.22" length="0.32" shape="4674.27,2358.80 4673.97,2358.85"/>
    </edge>
    <edge id=":10225965954_2" function="internal">
        <lane id=":10225965954_2_0" index="0" disallow="tram rail_urban rail rail_electric rail_fast ship container cable_car subway aircraft wheelchair scooter drone" speed="22.22" length="0.28" shape="4673.07,2352.51 4673.34,2352.47"/>
        <lane id=":10225965954_2_1" index="1" disallow="tram rail_urban rail rail_electric rail_fast ship container cable_car subway aircraft wheelchair scooter drone" speed="22.22" length="0.28" shape="4673.52,2355.68 4673.80,2355.64"/>
    </edge>
    <edge id=":10225965961_0" function="internal">
        <lane id=":10225965961_0_0" index="0" disallow="tram rail_urban rail rail_electric rail_fast ship container cable_car subway aircraft wheelchair scooter drone" speed="22.22" length="0.30" shape="5008.27,2308.76 5007.97,2308.81"/>
        <lane id=":10225965961_0_1" index="1" disallow="tram rail_urban rail rail_electric rail_fast ship container cable_car subway aircraft wheelchair scooter drone" speed="22.22" length="0.30" shape="5007.75,2305.60 5007.45,2305.65"/>
    </edge>
    <edge id=":10225965961_2" function="internal">
        <lane id=":10225965961_2_0" index="0" disallow="tram rail_urban rail rail_electric rail_fast ship container cable_car subway aircraft wheelchair scooter drone" speed="22.22" length="0.30" shape="5006.41,2299.34 5006.71,2299.29"/>
        <lane id=":10225965961_2_1" index="1" disallow="tram rail_urban rail rail_electric rail_fast ship container cable_car subway aircraft wheelchair scooter drone" speed="22.22" length="0.30" shape="5006.93,2302.50 5007.23,2302.45"/>
    </edge>
    <edge id=":10225965972_0" function="internal">
        <lane id=":10225965972_0_0" index="0" disallow="tram rail_urban rail rail_electric rail_fast ship container cable_car subway aircraft wheelchair scooter drone" speed="22.22" length="0.23" shape="5330.64,2256.68 5330.44,2256.72"/>
        <lane id=":10225965972_0_1" index="1" disallow="tram rail_urban rail rail_electric rail_fast ship container cable_car subway aircraft wheelchair scooter drone" speed="22.22" length="0.23" shape="5330.16,2253.52 5329.91,2253.56"/>
    </edge>
    <edge id=":10225965972_2" function="internal">
        <lane id=":10225965972_2_0" index="0" disallow="tram rail_urban rail rail_electric rail_fast ship container cable_car subway aircraft wheelchair scooter drone" speed="22.22" length="0.34" shape="5328.83,2247.25 5329.20,2247.19"/>
        <lane id=":10225965972_2_1" index="1" disallow="tram rail_urban rail rail_electric rail_fast ship container cable_car subway aircraft wheelchair scooter drone" speed="22.22" length="0.34" shape="5329.37,2250.41 5329.68,2250.36"/>
    </edge>
    <edge id=":1025803400_0" function="internal">
        <lane id=":1025803400_0_0" index="0" disallow="tram rail_urban rail rail_electric rail_fast ship container cable_car subway aircraft wheelchair scooter drone" speed="27.78" length="0.30" shape="5006.75,2936.55 5006.45,2936.56"/>
        <lane id=":1025803400_0_1" index="1" disallow="tram rail_urban rail rail_electric rail_fast ship container cable_car subway aircraft wheelchair scooter drone" speed="27.78" length="0.30" shape="5006.65,2933.36 5006.35,2933.36"/>
        <lane id=":1025803400_0_2" index="2" disallow="tram rail_urban rail rail_electric rail_fast ship container cable_car subway aircraft wheelchair scooter drone" speed="27.78" length="0.30" shape="5006.55,2930.16 5006.25,2930.17"/>
    </edge>
    <edge id=":1025803411_0" function="internal">
        <lane id=":1025803411_0_0" index="0" disallow="tram rail_urban rail rail_electric rail_fast ship container cable_car subway aircraft wheelchair scooter drone" speed="22.22" length="0.32" shape="5029.16,2667.81 5029.06,2667.80 5029.00,2667.79 5028.93,2667.79 5028.84,2667.79"/>
    </edge>
    <edge id=":1025803411_1" function="internal">
        <lane id=":1025803411_1_0" index="0" disallow="tram rail_urban rail rail_electric rail_fast ship container cable_car subway aircraft wheelchair scooter drone" speed="22.22" length="0.97" shape="5028.74,2664.59 5029.02,2664.58 5029.22,2664.59 5029.42,2664.61 5029.70,2664.66"/>
    </edge>
    <edge id=":1025803427_0" function="internal">
        <lane id=":1025803427_0_0" index="0" disallow="tram rail_urban rail rail_electric rail_fast ship container cable_car subway aircraft wheelchair scooter drone" speed="27.78" length="0.10" shape="5194.39,2931.18 5194.39,2931.18"/>
        <lane id=":1025803427_0_1" index="1" disallow="tram rail_urban rail rail_electric rail_fast ship container cable_car subway aircraft wheelchair scooter drone" speed="27.78" length="0.10" shape="5194.30,2927.98 5194.30,2927.98"/>
        <lane id=":1025803427_0_2" index="2" disallow="tram rail_urban rail rail_electric rail_fast ship container cable_car subway aircraft wheelchair scooter drone" speed="27.78" length="0.10" shape="5194.21,2924.78 5194.21,2924.78"/>
    </edge>
    <edge id=":1025803437_0" function="internal">
        <lane id=":1025803437_0_0" index="0" disallow="tram rail_urban rail rail_electric rail_fast ship container cable_car subway aircraft wheelchair scooter drone" speed="27.78" length="0.29" shape="5365.97,2924.81 5365.74,2924.82"/>
        <lane id=":1025803437_0_1" index="1" disallow="tram rail_urban rail rail_electric rail_fast ship container cable_car subway aircraft wheelchair scooter drone" speed="27.78" length="0.29" shape="5365.88,2921.62 5365.60,2921.63"/>
        <lane id=":1025803437_0_2" index="2" disallow="tram rail_urban rail rail_electric rail_fast ship container cable_car subway aircraft wheelchair scooter drone" speed="27.78" length="0.29" shape="5365.80,2918.42 5365.46,2918.43"/>
    </edge>
    <edge id=":10259539409_0" function="internal">
        <lane id=":10259539409_0_0" index="0" disallow="tram rail_urban rail rail_electric rail_fast ship container cable_car subway aircraft wheelchair scooter drone" speed="27.78" length="1.64" shape="4754.22,2870.44 4754.50,2871.29 4754.67,2871.88 4754.79,2872.48 4754.92,2873.37"/>
        <lane id=":10259539409_0_1" index="1" disallow="tram rail_urban rail rail_electric rail_fast ship container cable_car subway aircraft wheelchair scooter drone" speed="27.78" length="1.64" shape="4751.19,2871.45 4751.41,2872.14 4751.55,2872.63 4751.65,2873.12 4751.76,2873.84"/>
        <lane id=":10259539409_0_2" index="2" disallow="tram rail_urban rail rail_electric rail_fast ship container cable_car subway aircraft wheelchair scooter drone" speed="27.78" length="1.64" shape="4748.15,2872.45 4748.33,2873.00 4748.43,2873.37 4748.51,2873.75 4748.59,2874.32"/>
        <lane id=":10259539409_0_3" index="3" disallow="tram rail_urban rail rail_electric rail_fast ship container cable_car subway aircraft wheelchair scooter drone" speed="27.78" length="1.64" shape="4745.11,2873.46 4745.24,2873.85 4745.31,2874.12 4745.37,2874.39 4745.43,2874.79"/>
        <lane id=":10259539409_0_4" index="4" disallow="tram rail_urban rail rail_electric rail_fast ship container cable_car subway aircraft wheelchair scooter drone" speed="27.78" length="1.64" shape="4742.07,2874.47 4742.15,2874.70 4742.20,2874.86 4742.23,2875.03 4742.27,2875.27"/>
        <lane id=":10259539409_0_5" index="5" disallow="tram rail_urban rail rail_electric rail_fast ship container cable_car subway aircraft wheelchair scooter drone" speed="27.78" length="1.64" shape="4739.04,2875.48 4739.06,2875.55 4739.08,2875.61 4739.09,2875.66 4739.10,2875.74"/>
    </edge>
    <edge id=":10259539417_0" function="internal">
        <lane id=":10259539417_0_0" index="0" disallow="tram rail_urban rail rail_electric rail_fast ship container cable_car subway aircraft wheelchair scooter drone" speed="27.78" length="0.30" shape="4703.98,2953.08 4703.69,2953.08"/>
        <lane id=":10259539417_0_1" index="1" disallow="tram rail_urban rail rail_electric rail_fast ship container cable_car subway aircraft wheelchair scooter drone" speed="27.78" length="0.30" shape="4703.92,2949.88 4703.61,2949.88"/>
    </edge>
    <edge id=":10259539418_0" function="internal">
        <lane id=":10259539418_0_0" index="0" disallow="tram rail_urban rail rail_electric rail_fast ship container cable_car subway aircraft wheelchair scooter drone" speed="16.67" length="0.80" shape="4734.65,2893.10 4735.00,2893.09 4735.24,2893.10 4735.48,2893.14 4735.83,2893.21"/>
        <lane id=":10259539418_0_1" index="1" disallow="tram rail_urban rail rail_electric rail_fast ship container cable_car subway aircraft wheelchair scooter drone" speed="16.67" length="0.80" shape="4734.75,2896.30 4734.87,2896.30 4734.95,2896.30 4735.03,2896.31 4735.15,2896.34"/>
    </edge>
    <edge id=":10268959238_0" function="internal">
        <lane id=":10268959238_0_0" index="0" disallow="tram rail_urban rail rail_electric rail_fast ship container cable_car subway aircraft wheelchair scooter drone" speed="27.78" length="0.30" shape="5418.99,2923.05 5418.67,2923.06"/>
        <lane id=":10268959238_0_1" index="1" disallow="tram rail_urban rail rail_electric rail_fast ship container cable_car subway aircraft wheelchair scooter drone" speed="27.78" length="0.30" shape="5418.85,2919.85 5418.55,2919.87"/>
        <lane id=":10268959238_0_2" index="2" disallow="tram rail_urban rail rail_electric rail_fast ship container cable_car subway aircraft wheelchair scooter drone" speed="27.78" length="0.30" shape="5418.71,2916.66 5418.44,2916.67"/>
    </edge>
    <edge id=":10269216344_0" function="internal">
        <lane id=":10269216344_0_0" index="0" disallow="tram rail_urban rail rail_electric rail_fast ship container cable_car subway aircraft wheelchair scooter drone" speed="27.78" length="0.30" shape="5618.83,2792.12 5618.78,2791.91"/>
        <lane id=":10269216344_0_1" index="1" disallow="tram rail_urban rail rail_electric rail_fast ship container cable_car subway aircraft wheelchair scooter drone" speed="27.78" length="0.30" shape="5621.96,2791.48 5621.90,2791.18"/>
        <lane id=":10269216344_0_2" index="2" disallow="tram rail_urban rail rail_electric rail_fast ship container cable_car subway aircraft wheelchair scooter drone" speed="27.78" length="0.30" shape="5625.10,2790.84 5625.01,2790.45"/>
    </edge>
    <edge id=":10270885404_0" function="internal">
        <lane id=":10270885404_0_0" index="0" disallow="tram rail_urban rail rail_electric rail_fast ship container cable_car subway aircraft wheelchair scooter drone" speed="22.22" length="0.10" shape="5293.94,2815.47 5293.94,2815.47"/>
    </edge>
    <edge id=":10270885404_1" function="internal">
        <lane id=":10270885404_1_0" index="0" disallow="tram rail_urban rail rail_electric rail_fast ship container cable_car subway aircraft wheelchair scooter drone" speed="22.22" length="0.10" shape="5295.70,2812.79 5295.70,2812.79"/>
    </edge>
    <edge id=":10270911919_0" function="internal">
        <lane id=":10270911919_0_0" index="0" disallow="tram rail_urban rail rail_electric rail_fast ship container cable_car subway aircraft wheelchair scooter drone" speed="27.78" length="0.30" shape="5501.28,2899.57 5501.60,2899.56"/>
        <lane id=":10270911919_0_1" index="1" disallow="tram rail_urban rail rail_electric rail_fast ship container cable_car subway aircraft wheelchair scooter drone" speed="27.78" length="0.30" shape="5501.45,2902.77 5501.75,2902.75"/>
        <lane id=":10270911919_0_2" index="2" disallow="tram rail_urban rail rail_electric rail_fast ship container cable_car subway aircraft wheelchair scooter drone" speed="27.78" length="0.30" shape="5501.62,2905.96 5501.89,2905.95"/>
    </edge>
    <edge id=":10280203826_0" function="internal">
        <lane id=":10280203826_0_0" index="0" disallow="tram rail_urban rail rail_electric rail_fast ship container cable_car subway aircraft wheelchair scooter drone" speed="25.00" length="17.15" shape="4723.61,3216.85 4722.61,3211.40 4721.17,3207.33 4719.71,3203.94 4718.63,3200.51"/>
    </edge>
    <edge id=":10280203826_1" function="internal">
        <lane id=":10280203826_1_0" index="0" disallow="tram rail_urban rail rail_electric rail_fast ship container cable_car subway aircraft wheelchair scooter drone" speed="27.78" length="17.50" shape="4723.61,3216.85 4722.13,3199.39"/>
        <lane id=":10280203826_1_1" index="1" disallow="tram rail_urban rail rail_electric rail_fast ship container cable_car subway aircraft wheelchair scooter drone" speed="27.78" length="17.50" shape="4726.79,3216.53 4725.32,3199.12"/>
    </edge>
    <edge id=":10542375156_0" function="internal">
        <lane id=":10542375156_0_0" index="0" disallow="tram rail_urban rail rail_electric rail_fast ship container cable_car subway aircraft wheelchair scooter drone" speed="22.22" length="0.30" shape="5378.23,2249.40 5377.94,2249.45"/>
        <lane id=":10542375156_0_1" index="1" disallow="tram rail_urban rail rail_electric rail_fast ship container cable_car subway aircraft wheelchair scooter drone" speed="22.22" length="0.30" shape="5377.75,2246.24 5377.45,2246.28"/>
    </edge>
    <edge id=":10542375156_2" function="internal">
        <lane id=":10542375156_2_0" index="0" disallow="tram rail_urban rail rail_electric rail_fast ship container cable_car subway aircraft wheelchair scooter drone" speed="22.22" length="0.30" shape="5376.48,2239.96 5376.78,2239.91"/>
        <lane id=":10542375156_2_1" index="1" disallow="tram rail_urban rail rail_electric rail_fast ship container cable_car subway aircraft wheelchair scooter drone" speed="22.22" length="0.30" shape="5376.97,2243.12 5377.27,2243.08"/>
    </edge>
    <edge id=":10699042537_0" function="internal">
        <lane id=":10699042537_0_0" index="0" disallow="tram rail_urban rail rail_electric rail_fast ship container cable_car subway aircraft wheelchair scooter drone" speed="27.78" length="0.30" shape="5375.49,2924.55 5375.18,2924.56"/>
        <lane id=":10699042537_0_1" index="1" disallow="tram rail_urban rail rail_electric rail_fast ship container cable_car subway aircraft wheelchair scooter drone" speed="27.78" length="0.30" shape="5375.39,2921.36 5375.09,2921.36"/>
        <lane id=":10699042537_0_2" index="2" disallow="tram rail_urban rail rail_electric rail_fast ship container cable_car subway aircraft wheelchair scooter drone" speed="27.78" length="0.30" shape="5375.29,2918.16 5375.00,2918.17"/>
    </edge>
    <edge id=":10836332826_0" function="internal">
        <lane id=":10836332826_0_0" index="0" disallow="tram rail_urban rail rail_electric rail_fast ship container cable_car subway aircraft wheelchair scooter drone" speed="27.78" length="0.30" shape="5604.08,2727.25 5604.02,2726.98"/>
        <lane id=":10836332826_0_1" index="1" disallow="tram rail_urban rail rail_electric rail_fast ship container cable_car subway aircraft wheelchair scooter drone" speed="27.78" length="0.30" shape="5607.20,2726.56 5607.14,2726.26"/>
        <lane id=":10836332826_0_2" index="2" disallow="tram rail_urban rail rail_electric rail_fast ship container cable_car subway aircraft wheelchair scooter drone" speed="27.78" length="0.30" shape="5610.33,2725.86 5610.25,2725.55"/>
    </edge>
    <edge id=":10943481549_0" function="internal">
        <lane id=":10943481549_0_0" index="0" disallow="pedestrian tram rail_urban rail rail_electric rail_fast ship container cable_car subway aircraft wheelchair scooter drone" speed="13.89" length="2.88" width="3.88" shape="4725.48,3194.92 4725.41,3194.10 4725.27,3193.55 4725.12,3193.00 4725.01,3192.19"/>
        <lane id=":10943481549_0_1" index="1" disallow="pedestrian tram rail_urban rail rail_electric rail_fast ship container cable_car subway aircraft wheelchair scooter drone" speed="13.89" length="2.88" width="3.88" shape="4728.68,3194.85 4728.71,3193.97 4728.81,3193.37 4728.89,3192.77 4728.88,3191.89"/>
    </edge>
    <edge id=":10943481550_0" function="internal">
        <lane id=":10943481550_0_0" index="0" disallow="pedestrian tram rail_urban rail rail_electric rail_fast ship container cable_car subway aircraft wheelchair scooter drone" speed="13.89" length="2.74" shape="4645.94,2559.25 4645.85,2558.41 4645.89,2557.83 4645.94,2557.24 4645.92,2556.39"/>
        <lane id=":10943481550_0_1" index="1" disallow="pedestrian tram rail_urban rail rail_electric rail_fast ship container cable_car subway aircraft wheelchair scooter drone" speed="13.89" length="2.74" shape="4649.76,2558.62 4649.59,2557.87 4649.40,2557.37 4649.23,2556.87 4649.11,2556.11"/>
    </edge>
    <edge id=":10943481551_0" function="internal">
        <lane id=":10943481551_0_0" index="0" disallow="pedestrian tram rail_urban rail rail_electric rail_fast ship container cable_car subway aircraft wheelchair scooter drone" speed="13.89" length="2.37" width="3.88" shape="4684.53,2550.83 4684.62,2551.46 4684.77,2551.88 4684.94,2552.29 4685.10,2552.92"/>
        <lane id=":10943481551_0_1" index="1" disallow="pedestrian tram rail_urban rail rail_electric rail_fast ship container cable_car subway aircraft wheelchair scooter drone" speed="13.89" length="2.37" width="3.88" shape="4681.33,2550.99 4681.32,2551.75 4681.25,2552.28 4681.20,2552.80 4681.27,2553.55"/>
    </edge>
    <edge id=":10943481552_0" function="internal">
        <lane id=":10943481552_0_0" index="0" disallow="pedestrian tram rail_urban rail rail_electric rail_fast ship container cable_car subway aircraft wheelchair scooter drone" speed="13.89" length="2.96" shape="4764.72,3190.00 4764.74,3190.86 4764.67,3191.44 4764.61,3192.03 4764.66,3192.88"/>
        <lane id=":10943481552_0_1" index="1" disallow="pedestrian tram rail_urban rail rail_electric rail_fast ship container cable_car subway aircraft wheelchair scooter drone" speed="13.89" length="2.96" shape="4760.85,3190.30 4760.98,3191.18 4761.14,3191.77 4761.32,3192.37 4761.48,3193.25"/>
    </edge>
    <edge id=":10943481553_0" function="internal">
        <lane id=":10943481553_0_0" index="0" disallow="pedestrian tram rail_urban rail rail_electric rail_fast ship container cable_car subway aircraft wheelchair scooter drone" speed="13.89" length="0.28" width="3.88" shape="4753.38,3042.20 4753.41,3042.52"/>
        <lane id=":10943481553_0_1" index="1" disallow="pedestrian tram rail_urban rail rail_electric rail_fast ship container cable_car subway aircraft wheelchair scooter drone" speed="13.89" length="0.28" width="3.88" shape="4749.52,3042.57 4749.54,3042.82"/>
    </edge>
    <edge id=":10943481556_0" function="internal">
        <lane id=":10943481556_0_0" index="0" disallow="pedestrian tram rail_urban rail rail_electric rail_fast ship container cable_car subway aircraft wheelchair scooter drone" speed="13.89" length="0.28" width="3.88" shape="4713.83,3045.73 4713.81,3045.48"/>
        <lane id=":10943481556_0_1" index="1" disallow="pedestrian tram rail_urban rail rail_electric rail_fast ship container cable_car subway aircraft wheelchair scooter drone" speed="13.89" length="0.28" width="3.88" shape="4717.70,3045.43 4717.67,3045.12"/>
    </edge>
    <edge id=":10943481564_0" function="internal">
        <lane id=":10943481564_0_0" index="0" allow="private emergency authority army vip passenger hov taxi bus coach delivery truck trailer motorcycle evehicle custom1 custom2" speed="22.22" length="0.29" shape="4744.10,3042.91 4744.13,3043.22"/>
        <lane id=":10943481564_0_1" index="1" allow="private emergency authority army vip passenger hov taxi bus coach delivery truck trailer motorcycle evehicle custom1 custom2" speed="22.22" length="0.29" shape="4740.91,3043.21 4740.94,3043.47"/>
    </edge>
    <edge id=":10943481565_0" function="internal">
        <lane id=":10943481565_0_0" index="0" allow="private emergency authority army vip passenger hov taxi bus coach delivery truck trailer motorcycle evehicle custom1 custom2" speed="22.22" length="0.29" shape="4722.99,3044.86 4722.96,3044.60"/>
        <lane id=":10943481565_0_1" index="1" allow="private emergency authority army vip passenger hov taxi bus coach delivery truck trailer motorcycle evehicle custom1 custom2" speed="22.22" length="0.29" shape="4726.18,3044.61 4726.15,3044.30"/>
    </edge>
    <edge id=":11012669691_0" function="internal">
        <lane id=":11012669691_0_0" index="0" disallow="tram rail_urban rail rail_electric rail_fast ship container cable_car subway aircraft wheelchair scooter drone" speed="27.78" length="0.39" shape="4852.12,2920.62 4852.63,2920.61"/>
        <lane id=":11012669691_0_1" index="1" disallow="tram rail_urban rail rail_electric rail_fast ship container cable_car subway aircraft wheelchair scooter drone" speed="27.78" length="0.39" shape="4852.19,2923.81 4852.59,2923.81"/>
        <lane id=":11012669691_0_2" index="2" disallow="tram rail_urban rail rail_electric rail_fast ship container cable_car subway aircraft wheelchair scooter drone" speed="27.78" length="0.39" shape="4852.27,2927.01 4852.54,2927.01"/>
    </edge>
    <edge id=":11012687205_0" function="internal">
        <lane id=":11012687205_0_0" index="0" disallow="tram rail_urban rail rail_electric rail_fast ship container cable_car subway aircraft wheelchair scooter drone" speed="27.78" length="0.29" shape="4980.59,2917.33 4980.92,2917.33"/>
        <lane id=":11012687205_0_1" index="1" disallow="tram rail_urban rail rail_electric rail_fast ship container cable_car subway aircraft wheelchair scooter drone" speed="27.78" length="0.29" shape="4980.65,2920.53 4980.95,2920.53"/>
        <lane id=":11012687205_0_2" index="2" disallow="tram rail_urban rail rail_electric rail_fast ship container cable_car subway aircraft wheelchair scooter drone" speed="27.78" length="0.29" shape="4980.71,2923.73 4980.97,2923.73"/>
    </edge>
    <edge id=":11176022619_0" function="internal">
        <lane id=":11176022619_0_0" index="0" disallow="tram rail_urban rail rail_electric rail_fast ship container cable_car subway aircraft wheelchair scooter drone" speed="27.78" length="0.30" shape="4607.74,2344.56 4607.69,2344.26"/>
        <lane id=":11176022619_0_1" index="1" disallow="tram rail_urban rail rail_electric rail_fast ship container cable_car subway aircraft wheelchair scooter drone" speed="27.78" length="0.30" shape="4610.90,2344.06 4610.86,2343.76"/>
        <lane id=":11176022619_0_2" index="2" disallow="tram rail_urban rail rail_electric rail_fast ship container cable_car subway aircraft wheelchair scooter drone" speed="27.78" length="0.30" shape="4614.06,2343.56 4614.02,2343.26"/>
        <lane id=":11176022619_0_3" index="3" disallow="tram rail_urban rail rail_electric rail_fast ship container cable_car subway aircraft wheelchair scooter drone" speed="27.78" length="0.30" shape="4617.22,2343.06 4617.18,2342.76"/>
        <lane id=":11176022619_0_4" index="4" disallow="tram rail_urban rail rail_electric rail_fast ship container cable_car subway aircraft wheelchair scooter drone" speed="27.78" length="0.30" shape="4620.38,2342.56 4620.34,2342.26"/>
        <lane id=":11176022619_0_5" index="5" disallow="tram rail_urban rail rail_electric rail_fast ship container cable_car subway aircraft wheelchair scooter drone" speed="27.78" length="0.30" shape="4623.54,2342.06 4623.50,2341.76"/>
    </edge>
    <edge id=":11176022904_0" function="internal">
        <lane id=":11176022904_0_0" index="0" disallow="tram rail_urban rail rail_electric rail_fast ship container cable_car subway aircraft wheelchair scooter drone" speed="27.78" length="0.30" shape="4494.99,2081.62 4494.70,2081.67"/>
        <lane id=":11176022904_0_1" index="1" disallow="tram rail_urban rail rail_electric rail_fast ship container cable_car subway aircraft wheelchair scooter drone" speed="27.78" length="0.30" shape="4494.53,2078.46 4494.23,2078.50"/>
        <lane id=":11176022904_0_2" index="2" disallow="tram rail_urban rail rail_electric rail_fast ship container cable_car subway aircraft wheelchair scooter drone" speed="27.78" length="0.30" shape="4494.06,2075.29 4493.76,2075.34"/>
    </edge>
    <edge id=":11199580772_0" function="internal">
        <lane id=":11199580772_0_0" index="0" disallow="tram rail_urban rail rail_electric rail_fast ship container cable_car subway aircraft wheelchair scooter drone" speed="6.87" length="10.16" shape="5091.65,2924.18 5091.99,2921.41 5093.12,2919.41 5095.06,2918.18 5097.80,2917.71"/>
        <lane id=":11199580772_0_1" index="1" disallow="tram rail_urban rail rail_electric rail_fast ship container cable_car subway aircraft wheelchair scooter drone" speed="6.09" length="7.76" shape="5091.65,2924.18 5092.02,2922.81 5093.18,2921.81 5095.13,2921.17 5097.88,2920.91"/>
    </edge>
    <edge id=":11199580772_2" function="internal">